New Line.l(r:p13udt4524lv-p13ulv10012) Units=km Length=0.0131581 bus1=p13udt4524lv.1.2 bus2=p13ulv10012.1.2 switch=n enabled=y phases=2 Linecode=1P_UG_AL_1/0_Brenau_2

New Line.l(r:p13udm19529-p13ulv10013) Units=km Length=0.0131818 bus1=p13udm19529.1.2 bus2=p13ulv10013.1.2 switch=n enabled=y phases=2 Linecode=1P_UG_AL_1/0_Brenau_2

New Line.l(r:p13udm19531-p13ulv93147) Units=km Length=0.0141749 bus1=p13udm19531.1.2 bus2=p13ulv93147.1.2 switch=n enabled=y phases=2 Linecode=1P_UG_AL_4/0_Sweetbriar_2

New Line.l(r:p13udm19529-p13udm19531) Units=km Length=0.00924005 bus1=p13udm19529.1.2 bus2=p13udm19531.1.2 switch=n enabled=y phases=2 Linecode=1P_UG_AL_4/0_Sweetbriar_2

New Line.l(r:p13udm19529-p13udt4524lv) Units=km Length=0.00924005 bus1=p13udt4524lv.1.2 bus2=p13udm19529.1.2 switch=n enabled=y phases=2 Linecode=1P_UG_AL_4/0_Sweetbriar_2

New Line.l(r:p13udm19532-p13ulv93213) Units=km Length=0.0132412 bus1=p13udm19532.1.2 bus2=p13ulv93213.1.2 switch=n enabled=y phases=2 Linecode=1P_UG_AL_1/0_Brenau_2

New Line.l(r:p13udm19530-p13ulv10018) Units=km Length=0.012356 bus1=p13udm19530.1.2 bus2=p13ulv10018.1.2 switch=n enabled=y phases=2 Linecode=1P_UG_AL_1/0_Brenau_2

New Line.l(r:p13udm19530-p13udm19532) Units=km Length=0.0375961 bus1=p13udm19532.1.2 bus2=p13udm19530.1.2 switch=n enabled=y phases=2 Linecode=1P_UG_AL_1/0_Brenau_2

New Line.l(r:p13udm19532-p13udt4524lv) Units=km Length=0.00923408 bus1=p13udt4524lv.1.2 bus2=p13udm19532.1.2 switch=n enabled=y phases=2 Linecode=1P_UG_AL_2/0_Converse_2

New Line.l(r:p13udm19533-p13ulv10016) Units=km Length=0.0123205 bus1=p13udm19533.1.2 bus2=p13ulv10016.1.2 switch=n enabled=y phases=2 Linecode=1P_UG_AL_1/0_Brenau_2

New Line.l(r:p13udm19533-p13ulv93202) Units=km Length=0.0122212 bus1=p13udm19533.1.2 bus2=p13ulv93202.1.2 switch=n enabled=y phases=2 Linecode=1P_UG_AL_1/0_Brenau_2

New Line.l(r:p13udm19533-p13ulv93233) Units=km Length=0.013319700000000002 bus1=p13udm19533.1.2 bus2=p13ulv93233.1.2 switch=n enabled=y phases=2 Linecode=1P_UG_AL_1/0_Brenau_2

New Line.l(r:p13udm19534-p13ulv10017) Units=km Length=0.0124992 bus1=p13udm19534.1.2 bus2=p13ulv10017.1.2 switch=n enabled=y phases=2 Linecode=1P_UG_AL_1/0_Brenau_2

New Line.l(r:p13udm19533-p13udm19534) Units=km Length=0.009456 bus1=p13udm19533.1.2 bus2=p13udm19534.1.2 switch=n enabled=y phases=2 Linecode=1P_UG_AL_1/0_Brenau_2

New Line.l(r:p13udm19533-p13udt4525lv) Units=km Length=0.00945 bus1=p13udt4525lv.1.2 bus2=p13udm19533.1.2 switch=n enabled=y phases=2 Linecode=1P_UG_AL_4/0_Sweetbriar_2

New Line.l(r:p13udm19536-p13ulv10038) Units=km Length=0.0104485 bus1=p13udm19536.1.2 bus2=p13ulv10038.1.2 switch=n enabled=y phases=2 Linecode=1P_UG_AL_1/0_Brenau_2

New Line.l(r:p13udm19535-p13ulv10019) Units=km Length=0.0122121 bus1=p13udm19535.1.2 bus2=p13ulv10019.1.2 switch=n enabled=y phases=2 Linecode=1P_UG_AL_1/0_Brenau_2

New Line.l(r:p13udm19535-p13ulv10039) Units=km Length=0.0110102 bus1=p13udm19535.1.2 bus2=p13ulv10039.1.2 switch=n enabled=y phases=2 Linecode=1P_UG_AL_1/0_Brenau_2

New Line.l(r:p13udm19535-p13udm19536) Units=km Length=0.017684 bus1=p13udm19536.1.2 bus2=p13udm19535.1.2 switch=n enabled=y phases=2 Linecode=1P_UG_AL_1/0_Brenau_2

New Line.l(r:p13udm19536-p13udt4525lv) Units=km Length=0.00945 bus1=p13udt4525lv.1.2 bus2=p13udm19536.1.2 switch=n enabled=y phases=2 Linecode=1P_UG_AL_2/0_Converse_2

New Line.l(r:p13udt4534lv-p13ulv93166) Units=km Length=0.012642500000000001 bus1=p13udt4534lv.1.2 bus2=p13ulv93166.1.2 switch=n enabled=y phases=2 Linecode=1P_UG_AL_1/0_Brenau_2

New Line.l(r:p13udm19584-p13ulv10040) Units=km Length=0.009908960000000001 bus1=p13udm19584.1.2 bus2=p13ulv10040.1.2 switch=n enabled=y phases=2 Linecode=1P_UG_AL_1/0_Brenau_2

New Line.l(r:p13udm19584-p13ulv93186) Units=km Length=0.0139763 bus1=p13udm19584.1.2 bus2=p13ulv93186.1.2 switch=n enabled=y phases=2 Linecode=1P_UG_AL_1/0_Brenau_2

New Line.l(r:p13udm19585-p13ulv10041) Units=km Length=0.0146667 bus1=p13udm19585.1.2 bus2=p13ulv10041.1.2 switch=n enabled=y phases=2 Linecode=1P_UG_AL_1/0_Brenau_2

New Line.l(r:p13udm19585-p13ulv10042) Units=km Length=0.0126772 bus1=p13udm19585.1.2 bus2=p13ulv10042.1.2 switch=n enabled=y phases=2 Linecode=1P_UG_AL_1/0_Brenau_2

New Line.l(r:p13udm19587-p13ulv10043) Units=km Length=0.012992000000000002 bus1=p13udm19587.1.2 bus2=p13ulv10043.1.2 switch=n enabled=y phases=2 Linecode=1P_UG_AL_1/0_Brenau_2

New Line.l(r:p13udm19587-p13ulv93179) Units=km Length=0.0129712 bus1=p13udm19587.1.2 bus2=p13ulv93179.1.2 switch=n enabled=y phases=2 Linecode=1P_UG_AL_1/0_Brenau_2

New Line.l(r:p13udm19585-p13udm19587) Units=km Length=0.00983407 bus1=p13udm19585.1.2 bus2=p13udm19587.1.2 switch=n enabled=y phases=2 Linecode=1P_UG_AL_1/0_Brenau_2

New Line.l(r:p13udm19584-p13udm19585) Units=km Length=0.00983407 bus1=p13udm19584.1.2 bus2=p13udm19585.1.2 switch=n enabled=y phases=2 Linecode=1P_UG_AL_4/0_Sweetbriar_2

New Line.l(r:p13udm19584-p13udt4534lv) Units=km Length=0.00983407 bus1=p13udt4534lv.1.2 bus2=p13udm19584.1.2 switch=n enabled=y phases=2 Linecode=1P_UG_AL_4/0_Sweetbriar_2

New Line.l(r:p13udm19589-p13ulv75155) Units=km Length=0.0131051 bus1=p13udm19589.1.2 bus2=p13ulv75155.1.2 switch=n enabled=y phases=2 Linecode=1P_UG_AL_1/0_Brenau_2

New Line.l(r:p13udm19589-p13ulv94814) Units=km Length=0.010288700000000001 bus1=p13udm19589.1.2 bus2=p13ulv94814.1.2 switch=n enabled=y phases=2 Linecode=1P_UG_AL_1/0_Brenau_2

New Line.l(r:p13udm19588-p13ulv75144) Units=km Length=0.0357552 bus1=p13udm19588.1.2 bus2=p13ulv75144.1.2 switch=n enabled=y phases=2 Linecode=1P_UG_AL_1/0_Brenau_2

New Line.l(r:p13udm19588-p13udm19589) Units=km Length=0.00984005 bus1=p13udm19589.1.2 bus2=p13udm19588.1.2 switch=n enabled=y phases=2 Linecode=1P_UG_AL_1/0_Brenau_2

New Line.l(r:p13udm19589-p13udt4534lv) Units=km Length=0.0491844 bus1=p13udt4534lv.1.2 bus2=p13udm19589.1.2 switch=n enabled=y phases=2 Linecode=1P_UG_AL_2/0_Converse_2

New Line.l(r:p13udt4535lv-p13ulv10046) Units=km Length=0.0130453 bus1=p13udt4535lv.1.2 bus2=p13ulv10046.1.2 switch=n enabled=y phases=2 Linecode=1P_UG_AL_1/0_Brenau_2

New Line.l(r:p13udt4535lv-p13ulv93265) Units=km Length=0.0130352 bus1=p13udt4535lv.1.2 bus2=p13ulv93265.1.2 switch=n enabled=y phases=2 Linecode=1P_UG_AL_1/0_Brenau_2

New Line.l(r:p13udm19594-p13ulv10044) Units=km Length=0.0136859 bus1=p13udm19594.1.2 bus2=p13ulv10044.1.2 switch=n enabled=y phases=2 Linecode=1P_UG_AL_1/0_Brenau_2

New Line.l(r:p13udm19594-p13udt4535lv) Units=km Length=0.00907001 bus1=p13udt4535lv.1.2 bus2=p13udm19594.1.2 switch=n enabled=y phases=2 Linecode=1P_UG_AL_1/0_Brenau_2

New Line.l(r:p13udm19596-p13ulv10047) Units=km Length=0.0131395 bus1=p13udm19596.1.2 bus2=p13ulv10047.1.2 switch=n enabled=y phases=2 Linecode=1P_UG_AL_2/0_Converse_2

New Line.l(r:p13udm19596-p13ulv93241) Units=km Length=0.013400200000000001 bus1=p13udm19596.1.2 bus2=p13ulv93241.1.2 switch=n enabled=y phases=2 Linecode=1P_UG_AL_2/0_Converse_2

New Line.l(r:p13udm19596-p13udt4535lv) Units=km Length=0.009064 bus1=p13udt4535lv.1.2 bus2=p13udm19596.1.2 switch=n enabled=y phases=2 Linecode=1P_UG_AL_4/0_Sweetbriar_2

New Line.l(r:p13udt4536lv-p13ulv10045) Units=km Length=0.0140338 bus1=p13udt4536lv.1.2 bus2=p13ulv10045.1.2 switch=n enabled=y phases=2 Linecode=1P_UG_AL_1/0_Brenau_2

New Line.l(r:p13udt4536lv-p13ulv10049) Units=km Length=0.0136719 bus1=p13udt4536lv.1.2 bus2=p13ulv10049.1.2 switch=n enabled=y phases=2 Linecode=1P_UG_AL_1/0_Brenau_2

New Line.l(r:p13udm19600-p13ulv10048) Units=km Length=0.0125755 bus1=p13udm19600.1.2 bus2=p13ulv10048.1.2 switch=n enabled=y phases=2 Linecode=1P_UG_AL_1/0_Brenau_2

New Line.l(r:p13udm19600-p13ulv93270) Units=km Length=0.0132383 bus1=p13udm19600.1.2 bus2=p13ulv93270.1.2 switch=n enabled=y phases=2 Linecode=1P_UG_AL_1/0_Brenau_2

New Line.l(r:p13udm19600-p13udt4536lv) Units=km Length=0.00907001 bus1=p13udt4536lv.1.2 bus2=p13udm19600.1.2 switch=n enabled=y phases=2 Linecode=1P_UG_AL_1/0_Brenau_2

New Line.l(r:p13udm19603-p13ulv93285) Units=km Length=0.0125691 bus1=p13udm19603.1.2 bus2=p13ulv93285.1.2 switch=n enabled=y phases=2 Linecode=1P_UG_AL_1/0_Brenau_2

New Line.l(r:p13udm19603-p13udt4536lv) Units=km Length=0.00907001 bus1=p13udt4536lv.1.2 bus2=p13udm19603.1.2 switch=n enabled=y phases=2 Linecode=1P_UG_AL_1/0_Brenau_2

New Line.l(r:p13udm19618-p13ulv10052) Units=km Length=0.0106591 bus1=p13udm19618.1.2 bus2=p13ulv10052.1.2 switch=n enabled=y phases=2 Linecode=1P_UG_AL_1/0_Brenau_2

New Line.l(r:p13udm19618-p13ulv93174) Units=km Length=0.011654 bus1=p13udm19618.1.2 bus2=p13ulv93174.1.2 switch=n enabled=y phases=2 Linecode=1P_UG_AL_1/0_Brenau_2

New Line.l(r:p13udm19621-p13ulv93177) Units=km Length=0.00987526 bus1=p13udm19621.1.2 bus2=p13ulv93177.1.2 switch=n enabled=y phases=2 Linecode=1P_UG_AL_1/0_Brenau_2

New Line.l(r:p13udm19618-p13udm19621) Units=km Length=0.0188154 bus1=p13udm19618.1.2 bus2=p13udm19621.1.2 switch=n enabled=y phases=2 Linecode=1P_UG_AL_1/0_Brenau_2

New Line.l(r:p13udm19618-p13udt4539lv) Units=km Length=0.0188285 bus1=p13udt4539lv.1.2 bus2=p13udm19618.1.2 switch=n enabled=y phases=2 Linecode=1P_UG_AL_4/0_Sweetbriar_2

New Line.l(r:p13udm19619-p13ulv88503) Units=km Length=0.012373900000000002 bus1=p13udm19619.1.2 bus2=p13ulv88503.1.2 switch=n enabled=y phases=2 Linecode=1P_UG_AL_1/0_Brenau_2

New Line.l(r:p13udm19622-p13ulv100379) Units=km Length=0.0123225 bus1=p13udm19622.1.2 bus2=p13ulv100379.1.2 switch=n enabled=y phases=2 Linecode=1P_UG_AL_1/0_Brenau_2

New Line.l(r:p13udm19619-p13udm19622) Units=km Length=0.0188193 bus1=p13udm19619.1.2 bus2=p13udm19622.1.2 switch=n enabled=y phases=2 Linecode=1P_UG_AL_1/0_Brenau_2

New Line.l(r:p13udm19619-p13udt4539lv) Units=km Length=0.0282409 bus1=p13udt4539lv.1.2 bus2=p13udm19619.1.2 switch=n enabled=y phases=2 Linecode=1P_UG_AL_2/0_Converse_2

New Line.l(r:p13udt4540lv-p13ulv10053) Units=km Length=0.0126167 bus1=p13udt4540lv.1.2 bus2=p13ulv10053.1.2 switch=n enabled=y phases=2 Linecode=1P_UG_AL_1/0_Brenau_2

New Line.l(r:p13udt4540lv-p13ulv10078) Units=km Length=0.0126062 bus1=p13udt4540lv.1.2 bus2=p13ulv10078.1.2 switch=n enabled=y phases=2 Linecode=1P_UG_AL_1/0_Brenau_2

New Line.l(r:p13udm19624-p13ulv10054) Units=km Length=0.011743600000000002 bus1=p13udm19624.1.2 bus2=p13ulv10054.1.2 switch=n enabled=y phases=2 Linecode=1P_UG_AL_1/0_Brenau_2

New Line.l(r:p13udm19627-p13ulv91513) Units=km Length=0.0111779 bus1=p13udm19627.1.2 bus2=p13ulv91513.1.2 switch=n enabled=y phases=2 Linecode=1P_UG_AL_1/0_Brenau_2

New Line.l(r:p13udm19629-p13ulv91520) Units=km Length=0.0115128 bus1=p13udm19629.1.2 bus2=p13ulv91520.1.2 switch=n enabled=y phases=2 Linecode=1P_UG_AL_1/0_Brenau_2

New Line.l(r:p13udm19627-p13udm19629) Units=km Length=0.00914947 bus1=p13udm19627.1.2 bus2=p13udm19629.1.2 switch=n enabled=y phases=2 Linecode=1P_UG_AL_1/0_Brenau_2

New Line.l(r:p13udm19624-p13udm19627) Units=km Length=0.00914027 bus1=p13udm19624.1.2 bus2=p13udm19627.1.2 switch=n enabled=y phases=2 Linecode=1P_UG_AL_1/0_Brenau_2

New Line.l(r:p13udm19624-p13udt4540lv) Units=km Length=0.00914947 bus1=p13udt4540lv.1.2 bus2=p13udm19624.1.2 switch=n enabled=y phases=2 Linecode=1P_UG_AL_4/0_Sweetbriar_2

New Line.l(r:p13udm19626-p13ulv10079) Units=km Length=0.0120008 bus1=p13udm19626.1.2 bus2=p13ulv10079.1.2 switch=n enabled=y phases=2 Linecode=1P_UG_AL_1/0_Brenau_2

New Line.l(r:p13udm19626-p13ulv91514) Units=km Length=0.00980776 bus1=p13udm19626.1.2 bus2=p13ulv91514.1.2 switch=n enabled=y phases=2 Linecode=1P_UG_AL_4/0_Sweetbriar_2

New Line.l(r:p13udm19626-p13udt4540lv) Units=km Length=0.00914027 bus1=p13udt4540lv.1.2 bus2=p13udm19626.1.2 switch=n enabled=y phases=2 Linecode=1P_UG_AL_4/0_Sweetbriar_2

New Line.l(r:p13udm19631-p13ulv10056) Units=km Length=0.0126848 bus1=p13udm19631.1.2 bus2=p13ulv10056.1.2 switch=n enabled=y phases=2 Linecode=1P_UG_AL_1/0_Brenau_2

New Line.l(r:p13udm19631-p13ulv91415) Units=km Length=0.009785140000000001 bus1=p13udm19631.1.2 bus2=p13ulv91415.1.2 switch=n enabled=y phases=2 Linecode=1P_UG_AL_1/0_Brenau_2

New Line.l(r:p13udm19631-p13udt4542lv) Units=km Length=0.04508740000000001 bus1=p13udt4542lv.1.2 bus2=p13udm19631.1.2 switch=n enabled=y phases=2 Linecode=1P_UG_AL_1/0_Brenau_2

New Line.l(r:p13udm19633-p13ulv93284) Units=km Length=0.0103716 bus1=p13udm19633.1.2 bus2=p13ulv93284.1.2 switch=n enabled=y phases=2 Linecode=1P_UG_AL_1/0_Brenau_2

New Line.l(r:p13udm19634-p13ulv93309) Units=km Length=0.00840489 bus1=p13udm19634.1.2 bus2=p13ulv93309.1.2 switch=n enabled=y phases=2 Linecode=1P_UG_AL_4/0_Sweetbriar_2

New Line.l(r:p13udm19633-p13udm19634) Units=km Length=0.0084565 bus1=p13udm19633.1.2 bus2=p13udm19634.1.2 switch=n enabled=y phases=2 Linecode=1P_UG_AL_4/0_Sweetbriar_2

New Line.l(r:p13udm19633-p13udt4542lv) Units=km Length=0.00844844 bus1=p13udt4542lv.1.2 bus2=p13udm19633.1.2 switch=n enabled=y phases=2 Linecode=1P_UG_AL_4/0_Sweetbriar_2

New Line.l(r:p13udt4543lv-p13ulv91414) Units=km Length=0.0126224 bus1=p13udt4543lv.1.2 bus2=p13ulv91414.1.2 switch=n enabled=y phases=2 Linecode=1P_UG_AL_1/0_Brenau_2

New Line.l(r:p13udm19635-p13ulv10057) Units=km Length=0.009446320000000001 bus1=p13udm19635.1.2 bus2=p13ulv10057.1.2 switch=n enabled=y phases=2 Linecode=1P_UG_AL_1/0_Brenau_2

New Line.l(r:p13udm19640-p13ulv93333) Units=km Length=0.0126474 bus1=p13udm19640.1.2 bus2=p13ulv93333.1.2 switch=n enabled=y phases=2 Linecode=1P_UG_AL_1/0_Brenau_2

New Line.l(r:p13udm19635-p13udm19640) Units=km Length=0.00769603 bus1=p13udm19635.1.2 bus2=p13udm19640.1.2 switch=n enabled=y phases=2 Linecode=1P_UG_AL_1/0_Brenau_2

New Line.l(r:p13udm19635-p13udt4543lv) Units=km Length=0.00971025 bus1=p13udt4543lv.1.2 bus2=p13udm19635.1.2 switch=n enabled=y phases=2 Linecode=1P_UG_AL_1/0_Brenau_2

New Line.l(r:p13udm19637-p13ulv91417) Units=km Length=0.0109164 bus1=p13udm19637.1.2 bus2=p13ulv91417.1.2 switch=n enabled=y phases=2 Linecode=1P_UG_AL_1/0_Brenau_2

New Line.l(r:p13udm19637-p13ulv91461) Units=km Length=0.010175000000000002 bus1=p13udm19637.1.2 bus2=p13ulv91461.1.2 switch=n enabled=y phases=2 Linecode=1P_UG_AL_1/0_Brenau_2

New Line.l(r:p13udm19638-p13ulv91428) Units=km Length=0.010001 bus1=p13udm19638.1.2 bus2=p13ulv91428.1.2 switch=n enabled=y phases=2 Linecode=1P_UG_AL_1/0_Brenau_2

New Line.l(r:p13udm19637-p13udm19638) Units=km Length=0.0385249 bus1=p13udm19637.1.2 bus2=p13udm19638.1.2 switch=n enabled=y phases=2 Linecode=1P_UG_AL_1/0_Brenau_2

New Line.l(r:p13udm19637-p13udt4543lv) Units=km Length=0.00971025 bus1=p13udt4543lv.1.2 bus2=p13udm19637.1.2 switch=n enabled=y phases=2 Linecode=1P_UG_AL_4/0_Sweetbriar_2

New Line.l(r:p13udt4544lv-p13ulv10059) Units=km Length=0.0137707 bus1=p13udt4544lv.1.2 bus2=p13ulv10059.1.2 switch=n enabled=y phases=2 Linecode=1P_UG_AL_1/0_Brenau_2

New Line.l(r:p13udm19642-p13ulv10060) Units=km Length=0.0135127 bus1=p13udm19642.1.2 bus2=p13ulv10060.1.2 switch=n enabled=y phases=2 Linecode=1P_UG_AL_1/0_Brenau_2

New Line.l(r:p13udm19642-p13ulv91526) Units=km Length=0.0162451 bus1=p13udm19642.1.2 bus2=p13ulv91526.1.2 switch=n enabled=y phases=2 Linecode=1P_UG_AL_1/0_Brenau_2

New Line.l(r:p13udm19642-p13udt4544lv) Units=km Length=0.00921206 bus1=p13udt4544lv.1.2 bus2=p13udm19642.1.2 switch=n enabled=y phases=2 Linecode=1P_UG_AL_2/0_Converse_2

New Line.l(r:p13udm19643-p13ulv91502) Units=km Length=0.0140518 bus1=p13udm19643.1.2 bus2=p13ulv91502.1.2 switch=n enabled=y phases=2 Linecode=1P_UG_AL_1/0_Brenau_2

New Line.l(r:p13udm19643-p13udt4544lv) Units=km Length=0.00921413 bus1=p13udt4544lv.1.2 bus2=p13udm19643.1.2 switch=n enabled=y phases=2 Linecode=1P_UG_AL_1/0_Brenau_2

New Line.l(r:p13udt4545lv-p13ulv91518) Units=km Length=0.012531 bus1=p13udt4545lv.1.2 bus2=p13ulv91518.1.2 switch=n enabled=y phases=2 Linecode=1P_UG_AL_1/0_Brenau_2

New Line.l(r:p13udt4545lv-p13ulv91545) Units=km Length=0.0131984 bus1=p13udt4545lv.1.2 bus2=p13ulv91545.1.2 switch=n enabled=y phases=2 Linecode=1P_UG_AL_1/0_Brenau_2

New Line.l(r:p13udm19646-p13ulv10062) Units=km Length=0.012359 bus1=p13udm19646.1.2 bus2=p13ulv10062.1.2 switch=n enabled=y phases=2 Linecode=1P_UG_AL_2/0_Converse_2

New Line.l(r:p13udm19645-p13ulv10061) Units=km Length=0.011704 bus1=p13udm19645.1.2 bus2=p13ulv10061.1.2 switch=n enabled=y phases=2 Linecode=1P_UG_AL_1/0_Brenau_2

New Line.l(r:p13udm19645-p13ulv91535) Units=km Length=0.015233500000000002 bus1=p13udm19645.1.2 bus2=p13ulv91535.1.2 switch=n enabled=y phases=2 Linecode=1P_UG_AL_1/0_Brenau_2

New Line.l(r:p13udm19645-p13udm19646) Units=km Length=0.00921413 bus1=p13udm19646.1.2 bus2=p13udm19645.1.2 switch=n enabled=y phases=2 Linecode=1P_UG_AL_2/0_Converse_2

New Line.l(r:p13udm19646-p13udt4545lv) Units=km Length=0.0092061 bus1=p13udt4545lv.1.2 bus2=p13udm19646.1.2 switch=n enabled=y phases=2 Linecode=1P_UG_AL_4/0_Sweetbriar_2

New Line.l(r:p13udm19650-p13ulv91580) Units=km Length=0.0117394 bus1=p13udm19650.1.2 bus2=p13ulv91580.1.2 switch=n enabled=y phases=2 Linecode=1P_UG_AL_1/0_Brenau_2

New Line.l(r:p13udm19650-p13udt4545lv) Units=km Length=0.0960031 bus1=p13udt4545lv.1.2 bus2=p13udm19650.1.2 switch=n enabled=y phases=2 Linecode=1P_UG_AL_1/0_Brenau_2

New Line.l(r:p13udt4546lv-p13ulv10064) Units=km Length=0.0156691 bus1=p13udt4546lv.1.2 bus2=p13ulv10064.1.2 switch=n enabled=y phases=2 Linecode=1P_UG_AL_1/0_Brenau_2

New Line.l(r:p13udt4546lv-p13ulv91552) Units=km Length=0.00915614 bus1=p13udt4546lv.1.2 bus2=p13ulv91552.1.2 switch=n enabled=y phases=2 Linecode=1P_UG_AL_1/0_Brenau_2

New Line.l(r:p13udt4546lv-p13ulv91574) Units=km Length=0.0311245 bus1=p13udt4546lv.1.2 bus2=p13ulv91574.1.2 switch=n enabled=y phases=2 Linecode=1P_UG_AL_1/0_Brenau_2

New Line.l(r:p13udm19651-p13ulv10063) Units=km Length=0.0162265 bus1=p13udm19651.1.2 bus2=p13ulv10063.1.2 switch=n enabled=y phases=2 Linecode=1P_UG_AL_1/0_Brenau_2

New Line.l(r:p13udm19651-p13udt4546lv) Units=km Length=0.00982689 bus1=p13udt4546lv.1.2 bus2=p13udm19651.1.2 switch=n enabled=y phases=2 Linecode=1P_UG_AL_1/0_Brenau_2

New Line.l(r:p13udm19653-p13ulv10065) Units=km Length=0.0124923 bus1=p13udm19653.1.2 bus2=p13ulv10065.1.2 switch=n enabled=y phases=2 Linecode=1P_UG_AL_1/0_Brenau_2

New Line.l(r:p13udm19653-p13ulv91563) Units=km Length=0.00888851 bus1=p13udm19653.1.2 bus2=p13ulv91563.1.2 switch=n enabled=y phases=2 Linecode=1P_UG_AL_1/0_Brenau_2

New Line.l(r:p13udm19653-p13udt4546lv) Units=km Length=0.00982471 bus1=p13udt4546lv.1.2 bus2=p13udm19653.1.2 switch=n enabled=y phases=2 Linecode=1P_UG_AL_2/0_Converse_2

New Line.l(r:p13udt4549lv-p13ulv10070) Units=km Length=0.0142935 bus1=p13udt4549lv.1.2 bus2=p13ulv10070.1.2 switch=n enabled=y phases=2 Linecode=1P_UG_AL_1/0_Brenau_2

New Line.l(r:p13udm19667-p13ulv89692) Units=km Length=0.0118974 bus1=p13udm19667.1.2 bus2=p13ulv89692.1.2 switch=n enabled=y phases=2 Linecode=1P_UG_AL_1/0_Brenau_2

New Line.l(r:p13udm19667-p13ulv91604) Units=km Length=0.0139552 bus1=p13udm19667.1.2 bus2=p13ulv91604.1.2 switch=n enabled=y phases=2 Linecode=1P_UG_AL_1/0_Brenau_2

New Line.l(r:p13udm19667-p13udt4549lv) Units=km Length=0.00910922 bus1=p13udt4549lv.1.2 bus2=p13udm19667.1.2 switch=n enabled=y phases=2 Linecode=1P_UG_AL_1/0_Brenau_2

New Line.l(r:p13udm19668-p13ulv89699) Units=km Length=0.0116684 bus1=p13udm19668.1.2 bus2=p13ulv89699.1.2 switch=n enabled=y phases=2 Linecode=1P_UG_AL_1/0_Brenau_2

New Line.l(r:p13udm19665-p13ulv10069) Units=km Length=0.014068000000000002 bus1=p13udm19665.1.2 bus2=p13ulv10069.1.2 switch=n enabled=y phases=2 Linecode=1P_UG_AL_1/0_Brenau_2

New Line.l(r:p13udm19665-p13udm19668) Units=km Length=0.00911737 bus1=p13udm19668.1.2 bus2=p13udm19665.1.2 switch=n enabled=y phases=2 Linecode=1P_UG_AL_1/0_Brenau_2

New Line.l(r:p13udm19668-p13udt4549lv) Units=km Length=0.00911737 bus1=p13udt4549lv.1.2 bus2=p13udm19668.1.2 switch=n enabled=y phases=2 Linecode=1P_UG_AL_4/0_Sweetbriar_2

New Line.l(r:p13udt4551lv-p13ulv10074) Units=km Length=0.0132522 bus1=p13udt4551lv.1.2 bus2=p13ulv10074.1.2 switch=n enabled=y phases=2 Linecode=1P_UG_AL_1/0_Brenau_2

New Line.l(r:p13udt4551lv-p13ulv89691) Units=km Length=0.0151053 bus1=p13udt4551lv.1.2 bus2=p13ulv89691.1.2 switch=n enabled=y phases=2 Linecode=1P_UG_AL_1/0_Brenau_2

New Line.l(r:p13udm19674-p13ulv10073) Units=km Length=0.0149293 bus1=p13udm19674.1.2 bus2=p13ulv10073.1.2 switch=n enabled=y phases=2 Linecode=1P_UG_AL_1/0_Brenau_2

New Line.l(r:p13udm19674-p13ulv91600) Units=km Length=0.0136429 bus1=p13udm19674.1.2 bus2=p13ulv91600.1.2 switch=n enabled=y phases=2 Linecode=1P_UG_AL_1/0_Brenau_2

New Line.l(r:p13udm19674-p13udt4551lv) Units=km Length=0.0188414 bus1=p13udt4551lv.1.2 bus2=p13udm19674.1.2 switch=n enabled=y phases=2 Linecode=1P_UG_AL_4/0_Sweetbriar_2

New Line.l(r:p13udm19677-p13ulv89695) Units=km Length=0.0152742 bus1=p13udm19677.1.2 bus2=p13ulv89695.1.2 switch=n enabled=y phases=2 Linecode=1P_UG_AL_1/0_Brenau_2

New Line.l(r:p13udm19677-p13ulv89703) Units=km Length=0.0129551 bus1=p13udm19677.1.2 bus2=p13ulv89703.1.2 switch=n enabled=y phases=2 Linecode=1P_UG_AL_1/0_Brenau_2

New Line.l(r:p13udm19679-p13ulv89713) Units=km Length=0.013048 bus1=p13udm19679.1.2 bus2=p13ulv89713.1.2 switch=n enabled=y phases=2 Linecode=1P_UG_AL_1/0_Brenau_2

New Line.l(r:p13udm19677-p13udm19679) Units=km Length=0.0094255 bus1=p13udm19677.1.2 bus2=p13udm19679.1.2 switch=n enabled=y phases=2 Linecode=1P_UG_AL_1/0_Brenau_2

New Line.l(r:p13udm19677-p13udt4551lv) Units=km Length=0.0094255 bus1=p13udt4551lv.1.2 bus2=p13udm19677.1.2 switch=n enabled=y phases=2 Linecode=1P_UG_AL_4/0_Sweetbriar_2

New Line.l(r:p13udt4553lv-p13ulv10077) Units=km Length=0.00986444 bus1=p13udt4553lv.1.2 bus2=p13ulv10077.1.2 switch=n enabled=y phases=2 Linecode=1P_OH_AL_2/0_Rucina_2

New Line.l(r:p13udt4553lv-p13ulv10234) Units=km Length=0.0105559 bus1=p13udt4553lv.1.2 bus2=p13ulv10234.1.2 switch=n enabled=y phases=2 Linecode=1P_OH_AL_2/0_Rucina_2

New Line.l(r:p13udt4553lv-p13ulv10236) Units=km Length=0.0345309 bus1=p13udt4553lv.1.2 bus2=p13ulv10236.1.2 switch=n enabled=y phases=2 Linecode=1P_OH_AL_4/0_Zuzara_2

New Line.l(r:p13udm19682-p13ulv10076) Units=km Length=0.00976914 bus1=p13udm19682.1.2 bus2=p13ulv10076.1.2 switch=n enabled=y phases=2 Linecode=1P_OH_AL_2/0_Rucina_2

New Line.l(r:p13udm19682-p13udt4553lv) Units=km Length=0.0195872 bus1=p13udt4553lv.1.2 bus2=p13udm19682.1.2 switch=n enabled=y phases=2 Linecode=1P_OH_AL_2/0_Rucina_2

New Line.l(r:p13udt4554lv-p13ulv91571) Units=km Length=0.0113009 bus1=p13udt4554lv.1.2 bus2=p13ulv91571.1.2 switch=n enabled=y phases=2 Linecode=1P_UG_AL_4/0_Sweetbriar_2

New Line.l(r:p13udm19687-p13ulv10086) Units=km Length=0.009170440000000002 bus1=p13udm19687.1.2 bus2=p13ulv10086.1.2 switch=n enabled=y phases=2 Linecode=1P_UG_AL_1/0_Brenau_2

New Line.l(r:p13udm19686-p13ulv10080) Units=km Length=0.00806133 bus1=p13udm19686.1.2 bus2=p13ulv10080.1.2 switch=n enabled=y phases=2 Linecode=1P_UG_AL_1/0_Brenau_2

New Line.l(r:p13udm19686-p13udm19687) Units=km Length=0.00876733 bus1=p13udm19687.1.2 bus2=p13udm19686.1.2 switch=n enabled=y phases=2 Linecode=1P_UG_AL_1/0_Brenau_2

New Line.l(r:p13udm19687-p13udt4554lv) Units=km Length=0.008762080000000002 bus1=p13udt4554lv.1.2 bus2=p13udm19687.1.2 switch=n enabled=y phases=2 Linecode=1P_UG_AL_2/0_Converse_2

New Line.l(r:p13udm19688-p13ulv91546) Units=km Length=0.0119473 bus1=p13udm19688.1.2 bus2=p13ulv91546.1.2 switch=n enabled=y phases=2 Linecode=1P_UG_AL_1/0_Brenau_2

New Line.l(r:p13udm19688-p13udt4554lv) Units=km Length=0.00877127 bus1=p13udt4554lv.1.2 bus2=p13udm19688.1.2 switch=n enabled=y phases=2 Linecode=1P_UG_AL_1/0_Brenau_2

New Line.l(r:p13udt4555lv-p13ulv10083) Units=km Length=0.0344241 bus1=p13udt4555lv.1.2 bus2=p13ulv10083.1.2 switch=n enabled=y phases=2 Linecode=1P_UG_AL_1/0_Brenau_2

New Line.l(r:p13udt4555lv-p13ulv89728) Units=km Length=0.0133687 bus1=p13udt4555lv.1.2 bus2=p13ulv89728.1.2 switch=n enabled=y phases=2 Linecode=1P_UG_AL_1/0_Brenau_2

New Line.l(r:p13udm19690-p13ulv10081) Units=km Length=0.0158368 bus1=p13udm19690.1.2 bus2=p13ulv10081.1.2 switch=n enabled=y phases=2 Linecode=1P_UG_AL_1/0_Brenau_2

New Line.l(r:p13udm19690-p13udt4555lv) Units=km Length=0.0094255 bus1=p13udt4555lv.1.2 bus2=p13udm19690.1.2 switch=n enabled=y phases=2 Linecode=1P_UG_AL_1/0_Brenau_2

New Line.l(r:p13udm19691-p13ulv10082) Units=km Length=0.0342839 bus1=p13udm19691.1.2 bus2=p13ulv10082.1.2 switch=n enabled=y phases=2 Linecode=1P_UG_AL_1/0_Brenau_2

New Line.l(r:p13udm19691-p13ulv89735) Units=km Length=0.0106732 bus1=p13udm19691.1.2 bus2=p13ulv89735.1.2 switch=n enabled=y phases=2 Linecode=1P_UG_AL_2/0_Converse_2

New Line.l(r:p13udm19691-p13ulv89739) Units=km Length=0.0135656 bus1=p13udm19691.1.2 bus2=p13ulv89739.1.2 switch=n enabled=y phases=2 Linecode=1P_UG_AL_1/0_Brenau_2

New Line.l(r:p13udm19691-p13udt4555lv) Units=km Length=0.00942253 bus1=p13udt4555lv.1.2 bus2=p13udm19691.1.2 switch=n enabled=y phases=2 Linecode=1P_UG_AL_4/0_Sweetbriar_2

New Line.l(r:p13udt4556lv-p13ulv10084) Units=km Length=0.0118335 bus1=p13udt4556lv.1.2 bus2=p13ulv10084.1.2 switch=n enabled=y phases=2 Linecode=1P_UG_AL_1/0_Brenau_2

New Line.l(r:p13udt4556lv-p13ulv10087) Units=km Length=0.0136957 bus1=p13udt4556lv.1.2 bus2=p13ulv10087.1.2 switch=n enabled=y phases=2 Linecode=1P_UG_AL_4/0_Sweetbriar_2

New Line.l(r:p13udm19697-p13ulv10085) Units=km Length=0.0117042 bus1=p13udm19697.1.2 bus2=p13ulv10085.1.2 switch=n enabled=y phases=2 Linecode=1P_UG_AL_1/0_Brenau_2

New Line.l(r:p13udm19697-p13udt4556lv) Units=km Length=0.00980192 bus1=p13udt4556lv.1.2 bus2=p13udm19697.1.2 switch=n enabled=y phases=2 Linecode=1P_UG_AL_1/0_Brenau_2

New Line.l(r:p13udt4557lv-p13ulv10089) Units=km Length=0.0105183 bus1=p13udt4557lv.1.2 bus2=p13ulv10089.1.2 switch=n enabled=y phases=2 Linecode=1P_UG_AL_1/0_Brenau_2

New Line.l(r:p13udm19699-p13ulv10088) Units=km Length=0.0111597 bus1=p13udm19699.1.2 bus2=p13ulv10088.1.2 switch=n enabled=y phases=2 Linecode=1P_UG_AL_1/0_Brenau_2

New Line.l(r:p13udm19699-p13ulv89694) Units=km Length=0.011576 bus1=p13udm19699.1.2 bus2=p13ulv89694.1.2 switch=n enabled=y phases=2 Linecode=1P_UG_AL_1/0_Brenau_2

New Line.l(r:p13udm19699-p13ulv89706) Units=km Length=0.0205962 bus1=p13udm19699.1.2 bus2=p13ulv89706.1.2 switch=n enabled=y phases=2 Linecode=1P_UG_AL_1/0_Brenau_2

New Line.l(r:p13udm19699-p13udt4557lv) Units=km Length=0.0196134 bus1=p13udt4557lv.1.2 bus2=p13udm19699.1.2 switch=n enabled=y phases=2 Linecode=1P_UG_AL_2/0_Converse_2

New Line.l(r:p13udm19704-p13ulv89718) Units=km Length=0.010078400000000001 bus1=p13udm19704.1.2 bus2=p13ulv89718.1.2 switch=n enabled=y phases=2 Linecode=1P_UG_AL_1/0_Brenau_2

New Line.l(r:p13udm19704-p13ulv89734) Units=km Length=0.00700885 bus1=p13udm19704.1.2 bus2=p13ulv89734.1.2 switch=n enabled=y phases=2 Linecode=1P_UG_AL_1/0_Brenau_2

New Line.l(r:p13udm19701-p13ulv10091) Units=km Length=0.00971821 bus1=p13udm19701.1.2 bus2=p13ulv10091.1.2 switch=n enabled=y phases=2 Linecode=1P_UG_AL_1/0_Brenau_2

New Line.l(r:p13udm19705-p13ulv89729) Units=km Length=0.0114221 bus1=p13udm19705.1.2 bus2=p13ulv89729.1.2 switch=n enabled=y phases=2 Linecode=1P_OH_AL_2/0_Rucina_2

New Line.l(r:p13udm19701-p13udm19705) Units=km Length=0.0323443 bus1=p13udm19701.1.2 bus2=p13udm19705.1.2 switch=n enabled=y phases=2 Linecode=1P_OH_AL_4/0_Zuzara_2

New Line.l(r:p13udm19701-p13udm19704) Units=km Length=0.0196134 bus1=p13udm19704.1.2 bus2=p13udm19701.1.2 switch=n enabled=y phases=2 Linecode=1P_UG_AL_1/0_Brenau_2

New Line.l(r:p13udm19704-p13udt4557lv) Units=km Length=0.0098049 bus1=p13udt4557lv.1.2 bus2=p13udm19704.1.2 switch=n enabled=y phases=2 Linecode=1P_UG_AL_4/0_Sweetbriar_2

New Line.l(r:p13udt4558lv-p13ulv89712) Units=km Length=0.0133915 bus1=p13udt4558lv.1.2 bus2=p13ulv89712.1.2 switch=n enabled=y phases=2 Linecode=1P_OH_AL_2/0_Rucina_2

New Line.l(r:p13udm19707-p13ulv10092) Units=km Length=0.0310788 bus1=p13udm19707.1.2 bus2=p13ulv10092.1.2 switch=n enabled=y phases=2 Linecode=1P_OH_AL_4/0_Zuzara_2

New Line.l(r:p13udm19707-p13ulv10093) Units=km Length=0.0292752 bus1=p13udm19707.1.2 bus2=p13ulv10093.1.2 switch=n enabled=y phases=2 Linecode=1P_OH_AL_4/0_Zuzara_2

New Line.l(r:p13udm19707-p13ulv89717) Units=km Length=0.0131881 bus1=p13udm19707.1.2 bus2=p13ulv89717.1.2 switch=n enabled=y phases=2 Linecode=1P_OH_AL_2/0_Rucina_2

New Line.l(r:p13udm19707-p13udt4558lv) Units=km Length=0.0168692 bus1=p13udt4558lv.1.2 bus2=p13udm19707.1.2 switch=n enabled=y phases=2 Linecode=1P_OH_AL_2/0_Rucina_2

New Line.l(r:p13udm19709-p13ulv89701) Units=km Length=0.015086200000000001 bus1=p13udm19709.1.2 bus2=p13ulv89701.1.2 switch=n enabled=y phases=2 Linecode=1P_OH_AL_2/0_Rucina_2

New Line.l(r:p13udm19709-p13udt4558lv) Units=km Length=0.0168785 bus1=p13udt4558lv.1.2 bus2=p13udm19709.1.2 switch=n enabled=y phases=2 Linecode=1P_OH_AL_2/0_Rucina_2

New Line.l(r:p13udt4559lv-p13ulv10098) Units=km Length=0.0117779 bus1=p13udt4559lv.1.2 bus2=p13ulv10098.1.2 switch=n enabled=y phases=2 Linecode=1P_UG_AL_1/0_Brenau_2

New Line.l(r:p13udm19712-p13ulv10094) Units=km Length=0.0103082 bus1=p13udm19712.1.2 bus2=p13ulv10094.1.2 switch=n enabled=y phases=2 Linecode=1P_UG_AL_1/0_Brenau_2

New Line.l(r:p13udm19712-p13udt4559lv) Units=km Length=0.00985816 bus1=p13udt4559lv.1.2 bus2=p13udm19712.1.2 switch=n enabled=y phases=2 Linecode=1P_UG_AL_1/0_Brenau_2

New Line.l(r:p13udm19715-p13ulv91589) Units=km Length=0.0107134 bus1=p13udm19715.1.2 bus2=p13ulv91589.1.2 switch=n enabled=y phases=2 Linecode=1P_UG_AL_1/0_Brenau_2

New Line.l(r:p13udm19714-p13ulv91556) Units=km Length=0.0101424 bus1=p13udm19714.1.2 bus2=p13ulv91556.1.2 switch=n enabled=y phases=2 Linecode=1P_UG_AL_1/0_Brenau_2

New Line.l(r:p13udm19714-p13udm19715) Units=km Length=0.00985609 bus1=p13udm19715.1.2 bus2=p13udm19714.1.2 switch=n enabled=y phases=2 Linecode=1P_UG_AL_1/0_Brenau_2

New Line.l(r:p13udm19715-p13udt4559lv) Units=km Length=0.00986412 bus1=p13udt4559lv.1.2 bus2=p13udm19715.1.2 switch=n enabled=y phases=2 Linecode=1P_UG_AL_1/0_Brenau_2
