New Line.l(r:p13udt4757lv-p13ulv10490) Units=km Length=0.0106073 bus1=p13udt4757lv.1.2 bus2=p13ulv10490.1.2 switch=n enabled=y phases=2 Linecode=1P_OH_AL_2/0_Rucina_2

New Line.l(r:p13udt4757lv-p13ulv10491) Units=km Length=0.0247017 bus1=p13udt4757lv.1.2 bus2=p13ulv10491.1.2 switch=n enabled=y phases=2 Linecode=1P_OH_AL_2/0_Rucina_2

New Line.l(r:p13udm20471-p13ulv102680) Units=km Length=0.0039777 bus1=p13udm20471.1.2 bus2=p13ulv102680.1.2 switch=n enabled=y phases=2 Linecode=1P_OH_AL_4_Periwinkle_2

New Line.l(r:p13udm20471-p13udt4757lv) Units=km Length=0.0348093 bus1=p13udt4757lv.1.2 bus2=p13udm20471.1.2 switch=n enabled=y phases=2 Linecode=1P_OH_AL_4/0_Zuzara_2

New Line.l(r:p13udt4759lv-p13ulv10494) Units=km Length=0.00596923 bus1=p13udt4759lv.1.2 bus2=p13ulv10494.1.2 switch=n enabled=y phases=2 Linecode=1P_OH_AL_2/0_Rucina_2

New Line.l(r:p13udm20473-p13ulv10493) Units=km Length=0.00703011 bus1=p13udm20473.1.2 bus2=p13ulv10493.1.2 switch=n enabled=y phases=2 Linecode=1P_OH_AL_2/0_Rucina_2

New Line.l(r:p13udm20473-p13udt4759lv) Units=km Length=0.024015 bus1=p13udt4759lv.1.2 bus2=p13udm20473.1.2 switch=n enabled=y phases=2 Linecode=1P_OH_AL_2/0_Rucina_2

New Line.l(r:p13udm20475-p13ulv102702) Units=km Length=0.00226108 bus1=p13udm20475.1.2 bus2=p13ulv102702.1.2 switch=n enabled=y phases=2 Linecode=1P_OH_AL_4_Periwinkle_2

New Line.l(r:p13udm20475-p13udt4759lv) Units=km Length=0.032935000000000006 bus1=p13udt4759lv.1.2 bus2=p13udm20475.1.2 switch=n enabled=y phases=2 Linecode=1P_OH_AL_4/0_Zuzara_2

New Line.l(r:p13udt4760lv-p13ulv10495) Units=km Length=0.006912500000000001 bus1=p13udt4760lv.1.2 bus2=p13ulv10495.1.2 switch=n enabled=y phases=2 Linecode=1P_OH_AL_2/0_Rucina_2

New Line.l(r:p13udt4761lv-p13ulv10496) Units=km Length=0.00806296 bus1=p13udt4761lv.1.2 bus2=p13ulv10496.1.2 switch=n enabled=y phases=2 Linecode=1P_OH_AL_2/0_Rucina_2

New Line.l(r:p13udt4761lv-p13ulv102700) Units=km Length=0.00773838 bus1=p13udt4761lv.1.2 bus2=p13ulv102700.1.2 switch=n enabled=y phases=2 Linecode=1P_OH_AL_2/0_Rucina_2

New Line.l(r:p13udt4762lv-p13ulv10497) Units=km Length=0.0113201 bus1=p13udt4762lv.1.2 bus2=p13ulv10497.1.2 switch=n enabled=y phases=2 Linecode=1P_UG_AL_1/0_Brenau_2

New Line.l(r:p13udm20505-p13ulv10511) Units=km Length=0.0135682 bus1=p13udm20505.1.2 bus2=p13ulv10511.1.2 switch=n enabled=y phases=2 Linecode=1P_OH_AL_2/0_Rucina_2

New Line.l(r:p13udm20505-p13udt4774lv) Units=km Length=0.0191269 bus1=p13udt4774lv.1.2 bus2=p13udm20505.1.2 switch=n enabled=y phases=2 Linecode=1P_OH_AL_2/0_Rucina_2

New Line.l(r:p13udm20506-p13ulv88771) Units=km Length=0.0274007 bus1=p13udm20506.1.2 bus2=p13ulv88771.1.2 switch=n enabled=y phases=2 Linecode=1P_OH_AL_4/0_Zuzara_2

New Line.l(r:p13udm20506-p13udt4774lv) Units=km Length=0.0191197 bus1=p13udt4774lv.1.2 bus2=p13udm20506.1.2 switch=n enabled=y phases=2 Linecode=1P_OH_AL_2/0_Rucina_2

New Line.l(r:p13udt4777lv-p13ulv10535) Units=km Length=0.007408 bus1=p13udt4777lv.1.2 bus2=p13ulv10535.1.2 switch=n enabled=y phases=2 Linecode=1P_UG_AL_4/0_Sweetbriar_2

New Line.l(r:p13udm20510-p13ulv10514) Units=km Length=0.028985700000000003 bus1=p13udm20510.1.2 bus2=p13ulv10514.1.2 switch=n enabled=y phases=2 Linecode=1P_UG_AL_1/0_Brenau_2

New Line.l(r:p13udm20510-p13udt4777lv) Units=km Length=0.0194328 bus1=p13udt4777lv.1.2 bus2=p13udm20510.1.2 switch=n enabled=y phases=2 Linecode=1P_UG_AL_1/0_Brenau_2

New Line.l(r:p13udm20512-p13ulv102681) Units=km Length=0.0128531 bus1=p13udm20512.1.2 bus2=p13ulv102681.1.2 switch=n enabled=y phases=2 Linecode=1P_UG_AL_1/0_Brenau_2

New Line.l(r:p13udm20512-p13ulv102682) Units=km Length=0.0152912 bus1=p13udm20512.1.2 bus2=p13ulv102682.1.2 switch=n enabled=y phases=2 Linecode=1P_UG_AL_1/0_Brenau_2

New Line.l(r:p13udm20512-p13udt4777lv) Units=km Length=0.00970932 bus1=p13udt4777lv.1.2 bus2=p13udm20512.1.2 switch=n enabled=y phases=2 Linecode=1P_UG_AL_2/0_Converse_2

New Line.l(r:p13udt4783lv-p13ulv102676) Units=km Length=0.012424 bus1=p13udt4783lv.1.2 bus2=p13ulv102676.1.2 switch=n enabled=y phases=2 Linecode=1P_UG_AL_1/0_Brenau_2

New Line.l(r:p13udm20523-p13ulv10522) Units=km Length=0.0136118 bus1=p13udm20523.1.2 bus2=p13ulv10522.1.2 switch=n enabled=y phases=2 Linecode=1P_UG_AL_1/0_Brenau_2

New Line.l(r:p13udm20527-p13ulv102684) Units=km Length=0.0128397 bus1=p13udm20527.1.2 bus2=p13ulv102684.1.2 switch=n enabled=y phases=2 Linecode=1P_UG_AL_2/0_Converse_2

New Line.l(r:p13udm20523-p13udm20527) Units=km Length=0.00970523 bus1=p13udm20523.1.2 bus2=p13udm20527.1.2 switch=n enabled=y phases=2 Linecode=1P_UG_AL_2/0_Converse_2

New Line.l(r:p13udm20523-p13udt4783lv) Units=km Length=0.00970523 bus1=p13udt4783lv.1.2 bus2=p13udm20523.1.2 switch=n enabled=y phases=2 Linecode=1P_UG_AL_4/0_Sweetbriar_2

New Line.l(r:p13udm20524-p13ulv10531) Units=km Length=0.0163118 bus1=p13udm20524.1.2 bus2=p13ulv10531.1.2 switch=n enabled=y phases=2 Linecode=1P_UG_AL_2/0_Converse_2

New Line.l(r:p13udm20525-p13ulv15214) Units=km Length=0.0165606 bus1=p13udm20525.1.2 bus2=p13ulv15214.1.2 switch=n enabled=y phases=2 Linecode=1P_UG_AL_1/0_Brenau_2

New Line.l(r:p13udm20524-p13udm20525) Units=km Length=0.0194105 bus1=p13udm20524.1.2 bus2=p13udm20525.1.2 switch=n enabled=y phases=2 Linecode=1P_UG_AL_1/0_Brenau_2

New Line.l(r:p13udm20524-p13udt4783lv) Units=km Length=0.00970523 bus1=p13udt4783lv.1.2 bus2=p13udm20524.1.2 switch=n enabled=y phases=2 Linecode=1P_UG_AL_4/0_Sweetbriar_2

New Line.l(r:p13udt4785lv-p13ulv10524) Units=km Length=0.00711068 bus1=p13udt4785lv.1.2 bus2=p13ulv10524.1.2 switch=n enabled=y phases=2 Linecode=1P_UG_AL_1/0_Brenau_2

New Line.l(r:p13udm20530-p13ulv88774) Units=km Length=0.0162672 bus1=p13udm20530.1.2 bus2=p13ulv88774.1.2 switch=n enabled=y phases=2 Linecode=1P_UG_AL_1/0_Brenau_2

New Line.l(r:p13udm20530-p13udt4785lv) Units=km Length=0.00969836 bus1=p13udt4785lv.1.2 bus2=p13udm20530.1.2 switch=n enabled=y phases=2 Linecode=1P_UG_AL_1/0_Brenau_2

New Line.l(r:p13udt4786lv-p13ulv10526) Units=km Length=0.0111794 bus1=p13udt4786lv.1.2 bus2=p13ulv10526.1.2 switch=n enabled=y phases=2 Linecode=1P_UG_AL_4/0_Sweetbriar_2

New Line.l(r:p13udm20532-p13ulv10527) Units=km Length=0.0394322 bus1=p13udm20532.1.2 bus2=p13ulv10527.1.2 switch=n enabled=y phases=2 Linecode=1P_UG_AL_1/0_Brenau_2

New Line.l(r:p13udm20532-p13ulv10529) Units=km Length=0.00888077 bus1=p13udm20532.1.2 bus2=p13ulv10529.1.2 switch=n enabled=y phases=2 Linecode=1P_UG_AL_1/0_Brenau_2

New Line.l(r:p13udm20536-p13ulv88777) Units=km Length=0.012055 bus1=p13udm20536.1.2 bus2=p13ulv88777.1.2 switch=n enabled=y phases=2 Linecode=1P_UG_AL_1/0_Brenau_2

New Line.l(r:p13udm20535-p13ulv88776) Units=km Length=0.00988869 bus1=p13udm20535.1.2 bus2=p13ulv88776.1.2 switch=n enabled=y phases=2 Linecode=1P_UG_AL_1/0_Brenau_2

New Line.l(r:p13udm20535-p13udm20536) Units=km Length=0.018589 bus1=p13udm20536.1.2 bus2=p13udm20535.1.2 switch=n enabled=y phases=2 Linecode=1P_UG_AL_1/0_Brenau_2

New Line.l(r:p13udm20532-p13udm20536) Units=km Length=0.00930138 bus1=p13udm20532.1.2 bus2=p13udm20536.1.2 switch=n enabled=y phases=2 Linecode=1P_UG_AL_1/0_Brenau_2

New Line.l(r:p13udm20532-p13udt4787lv) Units=km Length=0.00928724 bus1=p13udt4787lv.1.2 bus2=p13udm20532.1.2 switch=n enabled=y phases=2 Linecode=1P_UG_AL_4/0_Sweetbriar_2

New Line.l(r:p13udm20534-p13ulv10530) Units=km Length=0.00894683 bus1=p13udm20534.1.2 bus2=p13ulv10530.1.2 switch=n enabled=y phases=2 Linecode=1P_UG_AL_1/0_Brenau_2

New Line.l(r:p13udm20537-p13ulv102677) Units=km Length=0.007566690000000001 bus1=p13udm20537.1.2 bus2=p13ulv102677.1.2 switch=n enabled=y phases=2 Linecode=1P_UG_AL_1/0_Brenau_2

New Line.l(r:p13udm20534-p13udm20537) Units=km Length=0.0188978 bus1=p13udm20534.1.2 bus2=p13udm20537.1.2 switch=n enabled=y phases=2 Linecode=1P_UG_AL_1/0_Brenau_2

New Line.l(r:p13udm20534-p13udt4787lv) Units=km Length=0.027897300000000003 bus1=p13udt4787lv.1.2 bus2=p13udm20534.1.2 switch=n enabled=y phases=2 Linecode=1P_UG_AL_1/0_Brenau_2

New Line.l(r:p13udm20544-p13ulv10536) Units=km Length=0.00744179 bus1=p13udm20544.1.2 bus2=p13ulv10536.1.2 switch=n enabled=y phases=2 Linecode=1P_UG_AL_4/0_Sweetbriar_2

New Line.l(r:p13udm20544-p13udt4790lv) Units=km Length=0.00972346 bus1=p13udt4790lv.1.2 bus2=p13udm20544.1.2 switch=n enabled=y phases=2 Linecode=1P_UG_AL_4/0_Sweetbriar_2

New Line.l(r:p13udm20545-p13ulv10537) Units=km Length=0.00751415 bus1=p13udm20545.1.2 bus2=p13ulv10537.1.2 switch=n enabled=y phases=2 Linecode=1P_UG_AL_2/0_Converse_2

New Line.l(r:p13udm20545-p13udt4790lv) Units=km Length=0.00970932 bus1=p13udt4790lv.1.2 bus2=p13udm20545.1.2 switch=n enabled=y phases=2 Linecode=1P_UG_AL_2/0_Converse_2

New Line.l(r:p13udt5043lv-p13ulv11118) Units=km Length=0.00811604 bus1=p13udt5043lv.1.2 bus2=p13ulv11118.1.2 switch=n enabled=y phases=2 Linecode=1P_OH_AL_2/0_Rucina_2

New Line.l(r:p13udm21725-p13ulv102672) Units=km Length=0.0159962 bus1=p13udm21725.1.2 bus2=p13ulv102672.1.2 switch=n enabled=y phases=2 Linecode=1P_OH_AL_2/0_Rucina_2

New Line.l(r:p13udm21724-p13ulv11124) Units=km Length=0.0157492 bus1=p13udm21724.1.2 bus2=p13ulv11124.1.2 switch=n enabled=y phases=2 Linecode=1P_UG_AL_1/0_Brenau_2

New Line.l(r:p13udm21724-p13udm21725) Units=km Length=0.102736 bus1=p13udm21725.1.2 bus2=p13udm21724.1.2 switch=n enabled=y phases=2 Linecode=1P_OH_AL_4/0_Zuzara_2

New Line.l(r:p13udm21725-p13udt5046lv) Units=km Length=0.0668406 bus1=p13udt5046lv.1.2 bus2=p13udm21725.1.2 switch=n enabled=y phases=2 Linecode=1P_OH_AL_4/0_Zuzara_2

New Line.l(r:p13udt5049lv-p13ulv11127) Units=km Length=0.00396313 bus1=p13udt5049lv.1.2 bus2=p13ulv11127.1.2 switch=n enabled=y phases=2 Linecode=1P_OH_AL_4_Periwinkle_2

New Line.l(r:p13udt5050lv-p13ulv11128) Units=km Length=0.011828800000000002 bus1=p13udt5050lv.1.2 bus2=p13ulv11128.1.2 switch=n enabled=y phases=2 Linecode=1P_UG_AL_4/0_Sweetbriar_2

New Line.l(r:p13udt5052lv-p13ulv11130) Units=km Length=0.0129881 bus1=p13udt5052lv.1.2 bus2=p13ulv11130.1.2 switch=n enabled=y phases=2 Linecode=1P_OH_AL_2/0_Rucina_2

New Line.l(r:p13udt5053lv-p13ulv11131) Units=km Length=0.0442607 bus1=p13udt5053lv.1.2 bus2=p13ulv11131.1.2 switch=n enabled=y phases=2 Linecode=1P_OH_AL_4/0_Zuzara_2

New Line.l(r:p13udm21733-p13ulv88775) Units=km Length=0.0136537 bus1=p13udm21733.1.2 bus2=p13ulv88775.1.2 switch=n enabled=y phases=2 Linecode=1P_OH_AL_2/0_Rucina_2

New Line.l(r:p13udm21733-p13udt5053lv) Units=km Length=0.0189459 bus1=p13udt5053lv.1.2 bus2=p13udm21733.1.2 switch=n enabled=y phases=2 Linecode=1P_OH_AL_2/0_Rucina_2

New Line.l(r:p13udt6381lv-p13ulv90461) Units=km Length=0.011172400000000002 bus1=p13udt6381lv.1.2 bus2=p13ulv90461.1.2 switch=n enabled=y phases=2 Linecode=1P_UG_AL_1/0_Brenau_2

New Line.l(r:p13udt6381lv-p13ulv90486) Units=km Length=0.0123451 bus1=p13udt6381lv.1.2 bus2=p13ulv90486.1.2 switch=n enabled=y phases=2 Linecode=1P_UG_AL_1/0_Brenau_2

New Line.l(r:p13udm27465-p13ulv14190) Units=km Length=0.0108652 bus1=p13udm27465.1.2 bus2=p13ulv14190.1.2 switch=n enabled=y phases=2 Linecode=1P_UG_AL_1/0_Brenau_2

New Line.l(r:p13udm27465-p13ulv14221) Units=km Length=0.00833449 bus1=p13udm27465.1.2 bus2=p13ulv14221.1.2 switch=n enabled=y phases=2 Linecode=1P_UG_AL_1/0_Brenau_2

New Line.l(r:p13udm27465-p13udt6381lv) Units=km Length=0.00989879 bus1=p13udt6381lv.1.2 bus2=p13udm27465.1.2 switch=n enabled=y phases=2 Linecode=1P_UG_AL_1/0_Brenau_2

New Line.l(r:p13udm27466-p13ulv14220) Units=km Length=0.0103075 bus1=p13udm27466.1.2 bus2=p13ulv14220.1.2 switch=n enabled=y phases=2 Linecode=1P_UG_AL_2/0_Converse_2

New Line.l(r:p13udm27466-p13udt6381lv) Units=km Length=0.00989637 bus1=p13udt6381lv.1.2 bus2=p13udm27466.1.2 switch=n enabled=y phases=2 Linecode=1P_UG_AL_2/0_Converse_2

New Line.l(r:p13udt6382lv-p13ulv14194) Units=km Length=0.0106005 bus1=p13udt6382lv.1.2 bus2=p13ulv14194.1.2 switch=n enabled=y phases=2 Linecode=1P_UG_AL_1/0_Brenau_2

New Line.l(r:p13udm27471-p13ulv14192) Units=km Length=0.0150486 bus1=p13udm27471.1.2 bus2=p13ulv14192.1.2 switch=n enabled=y phases=2 Linecode=1P_UG_AL_1/0_Brenau_2

New Line.l(r:p13udm27471-p13ulv14193) Units=km Length=0.00919115 bus1=p13udm27471.1.2 bus2=p13ulv14193.1.2 switch=n enabled=y phases=2 Linecode=1P_UG_AL_1/0_Brenau_2

New Line.l(r:p13udm27470-p13ulv14191) Units=km Length=0.0231796 bus1=p13udm27470.1.2 bus2=p13ulv14191.1.2 switch=n enabled=y phases=2 Linecode=1P_UG_AL_1/0_Brenau_2

New Line.l(r:p13udm27470-p13ulv90482) Units=km Length=0.00446287 bus1=p13udm27470.1.2 bus2=p13ulv90482.1.2 switch=n enabled=y phases=2 Linecode=1P_UG_AL_1/0_Brenau_2

New Line.l(r:p13udm27470-p13udm27471) Units=km Length=0.00964405 bus1=p13udm27471.1.2 bus2=p13udm27470.1.2 switch=n enabled=y phases=2 Linecode=1P_UG_AL_1/0_Brenau_2

New Line.l(r:p13udm27471-p13udt6382lv) Units=km Length=0.00964405 bus1=p13udt6382lv.1.2 bus2=p13udm27471.1.2 switch=n enabled=y phases=2 Linecode=1P_UG_AL_4/0_Sweetbriar_2

New Line.l(r:p13udm27477-p13ulv90495) Units=km Length=0.00735367 bus1=p13udm27477.1.2 bus2=p13ulv90495.1.2 switch=n enabled=y phases=2 Linecode=1P_UG_AL_1/0_Brenau_2

New Line.l(r:p13udm27474-p13ulv14195) Units=km Length=0.00969116 bus1=p13udm27474.1.2 bus2=p13ulv14195.1.2 switch=n enabled=y phases=2 Linecode=1P_UG_AL_1/0_Brenau_2

New Line.l(r:p13udm27475-p13ulv14197) Units=km Length=0.00898094 bus1=p13udm27475.1.2 bus2=p13ulv14197.1.2 switch=n enabled=y phases=2 Linecode=1P_UG_AL_1/0_Brenau_2

New Line.l(r:p13udm27474-p13udm27475) Units=km Length=0.00908861 bus1=p13udm27474.1.2 bus2=p13udm27475.1.2 switch=n enabled=y phases=2 Linecode=1P_UG_AL_1/0_Brenau_2

New Line.l(r:p13udm27474-p13udm27477) Units=km Length=0.00907505 bus1=p13udm27477.1.2 bus2=p13udm27474.1.2 switch=n enabled=y phases=2 Linecode=1P_UG_AL_1/0_Brenau_2

New Line.l(r:p13udm27477-p13udt6382lv) Units=km Length=0.00908861 bus1=p13udt6382lv.1.2 bus2=p13udm27477.1.2 switch=n enabled=y phases=2 Linecode=1P_UG_AL_2/0_Converse_2

New Line.l(r:p13udt6383lv-p13ulv90522) Units=km Length=0.0354682 bus1=p13udt6383lv.1.2 bus2=p13ulv90522.1.2 switch=n enabled=y phases=2 Linecode=1P_UG_AL_1/0_Brenau_2

New Line.l(r:p13udt6383lv-p13ulv90525) Units=km Length=0.00924431 bus1=p13udt6383lv.1.2 bus2=p13ulv90525.1.2 switch=n enabled=y phases=2 Linecode=1P_UG_AL_1/0_Brenau_2

New Line.l(r:p13udt6383lv-p13ulv90534) Units=km Length=0.040378000000000004 bus1=p13udt6383lv.1.2 bus2=p13ulv90534.1.2 switch=n enabled=y phases=2 Linecode=1P_UG_AL_1/0_Brenau_2

New Line.l(r:p13udm27478-p13ulv14196) Units=km Length=0.00838215 bus1=p13udm27478.1.2 bus2=p13ulv14196.1.2 switch=n enabled=y phases=2 Linecode=1P_UG_AL_1/0_Brenau_2

New Line.l(r:p13udm27478-p13ulv90508) Units=km Length=0.0169604 bus1=p13udm27478.1.2 bus2=p13ulv90508.1.2 switch=n enabled=y phases=2 Linecode=1P_UG_AL_1/0_Brenau_2

New Line.l(r:p13udm27478-p13ulv90515) Units=km Length=0.0113191 bus1=p13udm27478.1.2 bus2=p13ulv90515.1.2 switch=n enabled=y phases=2 Linecode=1P_UG_AL_1/0_Brenau_2

New Line.l(r:p13udm27478-p13udt6383lv) Units=km Length=0.00960615 bus1=p13udt6383lv.1.2 bus2=p13udm27478.1.2 switch=n enabled=y phases=2 Linecode=1P_UG_AL_2/0_Converse_2

New Line.l(r:p13udm27479-p13ulv14199) Units=km Length=0.00857336 bus1=p13udm27479.1.2 bus2=p13ulv14199.1.2 switch=n enabled=y phases=2 Linecode=1P_UG_AL_1/0_Brenau_2

New Line.l(r:p13udm27480-p13ulv14823) Units=km Length=0.00734444 bus1=p13udm27480.1.2 bus2=p13ulv14823.1.2 switch=n enabled=y phases=2 Linecode=1P_UG_AL_1/0_Brenau_2

New Line.l(r:p13udm27479-p13udm27480) Units=km Length=0.019724000000000002 bus1=p13udm27479.1.2 bus2=p13udm27480.1.2 switch=n enabled=y phases=2 Linecode=1P_UG_AL_1/0_Brenau_2

New Line.l(r:p13udm27479-p13udt6383lv) Units=km Length=0.0098532 bus1=p13udt6383lv.1.2 bus2=p13udm27479.1.2 switch=n enabled=y phases=2 Linecode=1P_UG_AL_1/0_Brenau_2

New Line.l(r:p13udt6384lv-p13ulv14210) Units=km Length=0.0120213 bus1=p13udt6384lv.1.2 bus2=p13ulv14210.1.2 switch=n enabled=y phases=2 Linecode=1P_UG_AL_1/0_Brenau_2

New Line.l(r:p13udt6384lv-p13ulv88652) Units=km Length=0.034054600000000004 bus1=p13udt6384lv.1.2 bus2=p13ulv88652.1.2 switch=n enabled=y phases=2 Linecode=1P_UG_AL_1/0_Brenau_2

New Line.l(r:p13udm27487-p13ulv14209) Units=km Length=0.0124523 bus1=p13udm27487.1.2 bus2=p13ulv14209.1.2 switch=n enabled=y phases=2 Linecode=1P_UG_AL_1/0_Brenau_2

New Line.l(r:p13udm27490-p13ulv88618) Units=km Length=0.007994 bus1=p13udm27490.1.2 bus2=p13ulv88618.1.2 switch=n enabled=y phases=2 Linecode=1P_UG_AL_1/0_Brenau_2

New Line.l(r:p13udm27490-p13ulv88623) Units=km Length=0.00388232 bus1=p13udm27490.1.2 bus2=p13ulv88623.1.2 switch=n enabled=y phases=2 Linecode=1P_UG_AL_1/0_Brenau_2

New Line.l(r:p13udm27494-p13ulv90545) Units=km Length=0.00656544 bus1=p13udm27494.1.2 bus2=p13ulv90545.1.2 switch=n enabled=y phases=2 Linecode=1P_UG_AL_1/0_Brenau_2

New Line.l(r:p13udm27486-p13ulv14198) Units=km Length=0.014304800000000001 bus1=p13udm27486.1.2 bus2=p13ulv14198.1.2 switch=n enabled=y phases=2 Linecode=1P_UG_AL_1/0_Brenau_2

New Line.l(r:p13udm27486-p13udm27494) Units=km Length=0.00986199 bus1=p13udm27494.1.2 bus2=p13udm27486.1.2 switch=n enabled=y phases=2 Linecode=1P_UG_AL_1/0_Brenau_2

New Line.l(r:p13udm27490-p13udm27494) Units=km Length=0.0295772 bus1=p13udm27490.1.2 bus2=p13udm27494.1.2 switch=n enabled=y phases=2 Linecode=1P_UG_AL_1/0_Brenau_2

New Line.l(r:p13udm27487-p13udm27490) Units=km Length=0.00986199 bus1=p13udm27487.1.2 bus2=p13udm27490.1.2 switch=n enabled=y phases=2 Linecode=1P_UG_AL_4/0_Sweetbriar_2

New Line.l(r:p13udm27487-p13udt6384lv) Units=km Length=0.00940972 bus1=p13udt6384lv.1.2 bus2=p13udm27487.1.2 switch=n enabled=y phases=2 Linecode=1P_UG_AL_4/0_Sweetbriar_2

New Line.l(r:p13udm27489-p13ulv14211) Units=km Length=0.0133947 bus1=p13udm27489.1.2 bus2=p13ulv14211.1.2 switch=n enabled=y phases=2 Linecode=1P_UG_AL_1/0_Brenau_2

New Line.l(r:p13udm27489-p13ulv88626) Units=km Length=0.00930809 bus1=p13udm27489.1.2 bus2=p13ulv88626.1.2 switch=n enabled=y phases=2 Linecode=1P_UG_AL_1/0_Brenau_2

New Line.l(r:p13udm27489-p13udt6384lv) Units=km Length=0.00941544 bus1=p13udt6384lv.1.2 bus2=p13udm27489.1.2 switch=n enabled=y phases=2 Linecode=1P_UG_AL_1/0_Brenau_2

New Line.l(r:p13udt6385lv-p13ulv14216) Units=km Length=0.00975205 bus1=p13udt6385lv.1.2 bus2=p13ulv14216.1.2 switch=n enabled=y phases=2 Linecode=1P_UG_AL_1/0_Brenau_2

New Line.l(r:p13udm27495-p13ulv14200) Units=km Length=0.00606927 bus1=p13udm27495.1.2 bus2=p13ulv14200.1.2 switch=n enabled=y phases=2 Linecode=1P_UG_AL_1/0_Brenau_2

New Line.l(r:p13udm27495-p13udt6385lv) Units=km Length=0.00942364 bus1=p13udt6385lv.1.2 bus2=p13udm27495.1.2 switch=n enabled=y phases=2 Linecode=1P_UG_AL_1/0_Brenau_2

New Line.l(r:p13udm27498-p13ulv88632) Units=km Length=0.009258820000000001 bus1=p13udm27498.1.2 bus2=p13ulv88632.1.2 switch=n enabled=y phases=2 Linecode=1P_UG_AL_1/0_Brenau_2

New Line.l(r:p13udm27496-p13ulv14212) Units=km Length=0.0129962 bus1=p13udm27496.1.2 bus2=p13ulv14212.1.2 switch=n enabled=y phases=2 Linecode=1P_UG_AL_2/0_Converse_2

New Line.l(r:p13udm27496-p13udm27498) Units=km Length=0.00941544 bus1=p13udm27498.1.2 bus2=p13udm27496.1.2 switch=n enabled=y phases=2 Linecode=1P_UG_AL_2/0_Converse_2

New Line.l(r:p13udm27498-p13udt6385lv) Units=km Length=0.00940972 bus1=p13udt6385lv.1.2 bus2=p13udm27498.1.2 switch=n enabled=y phases=2 Linecode=1P_UG_AL_4/0_Sweetbriar_2

New Line.l(r:p13udt6386lv-p13ulv14204) Units=km Length=0.015542300000000002 bus1=p13udt6386lv.1.2 bus2=p13ulv14204.1.2 switch=n enabled=y phases=2 Linecode=1P_UG_AL_1/0_Brenau_2

New Line.l(r:p13udt6386lv-p13ulv14716) Units=km Length=0.0108774 bus1=p13udt6386lv.1.2 bus2=p13ulv14716.1.2 switch=n enabled=y phases=2 Linecode=1P_UG_AL_1/0_Brenau_2

New Line.l(r:p13udm27501-p13ulv14203) Units=km Length=0.013307900000000001 bus1=p13udm27501.1.2 bus2=p13ulv14203.1.2 switch=n enabled=y phases=2 Linecode=1P_UG_AL_1/0_Brenau_2

New Line.l(r:p13udm27501-p13ulv14715) Units=km Length=0.0109547 bus1=p13udm27501.1.2 bus2=p13ulv14715.1.2 switch=n enabled=y phases=2 Linecode=1P_UG_AL_1/0_Brenau_2

New Line.l(r:p13udm27499-p13ulv14201) Units=km Length=0.0134391 bus1=p13udm27499.1.2 bus2=p13ulv14201.1.2 switch=n enabled=y phases=2 Linecode=1P_UG_AL_1/0_Brenau_2

New Line.l(r:p13udm27500-p13ulv14202) Units=km Length=0.0131173 bus1=p13udm27500.1.2 bus2=p13ulv14202.1.2 switch=n enabled=y phases=2 Linecode=1P_UG_AL_1/0_Brenau_2

New Line.l(r:p13udm27499-p13udm27500) Units=km Length=0.00904093 bus1=p13udm27499.1.2 bus2=p13udm27500.1.2 switch=n enabled=y phases=2 Linecode=1P_UG_AL_1/0_Brenau_2

New Line.l(r:p13udm27499-p13udm27501) Units=km Length=0.0180819 bus1=p13udm27501.1.2 bus2=p13udm27499.1.2 switch=n enabled=y phases=2 Linecode=1P_UG_AL_1/0_Brenau_2

New Line.l(r:p13udm27501-p13udt6386lv) Units=km Length=0.00904093 bus1=p13udt6386lv.1.2 bus2=p13udm27501.1.2 switch=n enabled=y phases=2 Linecode=1P_UG_AL_4/0_Sweetbriar_2

New Line.l(r:p13udm27503-p13ulv14205) Units=km Length=0.0159829 bus1=p13udm27503.1.2 bus2=p13ulv14205.1.2 switch=n enabled=y phases=2 Linecode=1P_UG_AL_1/0_Brenau_2

New Line.l(r:p13udm27503-p13ulv88640) Units=km Length=0.0111138 bus1=p13udm27503.1.2 bus2=p13ulv88640.1.2 switch=n enabled=y phases=2 Linecode=1P_UG_AL_1/0_Brenau_2

New Line.l(r:p13udm27503-p13udt6386lv) Units=km Length=0.00904093 bus1=p13udt6386lv.1.2 bus2=p13udm27503.1.2 switch=n enabled=y phases=2 Linecode=1P_UG_AL_1/0_Brenau_2

New Line.l(r:p13udt6387lv-p13ulv14206) Units=km Length=0.014622600000000001 bus1=p13udt6387lv.1.2 bus2=p13ulv14206.1.2 switch=n enabled=y phases=2 Linecode=1P_UG_AL_1/0_Brenau_2

New Line.l(r:p13udt6387lv-p13ulv88636) Units=km Length=0.0100622 bus1=p13udt6387lv.1.2 bus2=p13ulv88636.1.2 switch=n enabled=y phases=2 Linecode=1P_UG_AL_1/0_Brenau_2

New Line.l(r:p13udm27508-p13ulv88627) Units=km Length=0.00736549 bus1=p13udm27508.1.2 bus2=p13ulv88627.1.2 switch=n enabled=y phases=2 Linecode=1P_UG_AL_1/0_Brenau_2

New Line.l(r:p13udm27508-p13udt6387lv) Units=km Length=0.009049020000000001 bus1=p13udt6387lv.1.2 bus2=p13udm27508.1.2 switch=n enabled=y phases=2 Linecode=1P_UG_AL_1/0_Brenau_2

New Line.l(r:p13udt6388lv-p13ulv14207) Units=km Length=0.0174716 bus1=p13udt6388lv.1.2 bus2=p13ulv14207.1.2 switch=n enabled=y phases=2 Linecode=1P_UG_AL_1/0_Brenau_2

New Line.l(r:p13udt6388lv-p13ulv90527) Units=km Length=0.0107349 bus1=p13udt6388lv.1.2 bus2=p13ulv90527.1.2 switch=n enabled=y phases=2 Linecode=1P_UG_AL_1/0_Brenau_2

New Line.l(r:p13udm27512-p13ulv14723) Units=km Length=0.0115451 bus1=p13udm27512.1.2 bus2=p13ulv14723.1.2 switch=n enabled=y phases=2 Linecode=1P_UG_AL_1/0_Brenau_2

New Line.l(r:p13udm27511-p13ulv14722) Units=km Length=0.0109524 bus1=p13udm27511.1.2 bus2=p13ulv14722.1.2 switch=n enabled=y phases=2 Linecode=1P_UG_AL_1/0_Brenau_2

New Line.l(r:p13udm27511-p13ulv90516) Units=km Length=0.0159722 bus1=p13udm27511.1.2 bus2=p13ulv90516.1.2 switch=n enabled=y phases=2 Linecode=1P_UG_AL_2/0_Converse_2

New Line.l(r:p13udm27511-p13udm27512) Units=km Length=0.00901504 bus1=p13udm27512.1.2 bus2=p13udm27511.1.2 switch=n enabled=y phases=2 Linecode=1P_UG_AL_4/0_Sweetbriar_2

New Line.l(r:p13udm27512-p13udt6388lv) Units=km Length=0.00902319 bus1=p13udt6388lv.1.2 bus2=p13udm27512.1.2 switch=n enabled=y phases=2 Linecode=1P_UG_AL_4/0_Sweetbriar_2

New Line.l(r:p13udm27513-p13ulv14724) Units=km Length=0.0104328 bus1=p13udm27513.1.2 bus2=p13ulv14724.1.2 switch=n enabled=y phases=2 Linecode=1P_UG_AL_1/0_Brenau_2

New Line.l(r:p13udm27514-p13ulv90512) Units=km Length=0.007619880000000001 bus1=p13udm27514.1.2 bus2=p13ulv90512.1.2 switch=n enabled=y phases=2 Linecode=1P_UG_AL_1/0_Brenau_2

New Line.l(r:p13udm27513-p13udm27514) Units=km Length=0.0279289 bus1=p13udm27513.1.2 bus2=p13udm27514.1.2 switch=n enabled=y phases=2 Linecode=1P_UG_AL_1/0_Brenau_2

New Line.l(r:p13udm27513-p13udt6388lv) Units=km Length=0.0180359 bus1=p13udt6388lv.1.2 bus2=p13udm27513.1.2 switch=n enabled=y phases=2 Linecode=1P_UG_AL_1/0_Brenau_2

New Line.l(r:p13udt6389lv-p13ulv90494) Units=km Length=0.00934591 bus1=p13udt6389lv.1.2 bus2=p13ulv90494.1.2 switch=n enabled=y phases=2 Linecode=1P_UG_AL_1/0_Brenau_2

New Line.l(r:p13udt6389lv-p13ulv90507) Units=km Length=0.0241868 bus1=p13udt6389lv.1.2 bus2=p13ulv90507.1.2 switch=n enabled=y phases=2 Linecode=1P_UG_AL_1/0_Brenau_2

New Line.l(r:p13udm27517-p13ulv14208) Units=km Length=0.0103078 bus1=p13udm27517.1.2 bus2=p13ulv14208.1.2 switch=n enabled=y phases=2 Linecode=1P_UG_AL_1/0_Brenau_2

New Line.l(r:p13udm27517-p13ulv14219) Units=km Length=0.007551540000000001 bus1=p13udm27517.1.2 bus2=p13ulv14219.1.2 switch=n enabled=y phases=2 Linecode=1P_UG_AL_1/0_Brenau_2

New Line.l(r:p13udm27517-p13udt6389lv) Units=km Length=0.00989061 bus1=p13udt6389lv.1.2 bus2=p13udm27517.1.2 switch=n enabled=y phases=2 Linecode=1P_UG_AL_1/0_Brenau_2

New Line.l(r:p13udm27519-p13ulv90483) Units=km Length=0.00778689 bus1=p13udm27519.1.2 bus2=p13ulv90483.1.2 switch=n enabled=y phases=2 Linecode=1P_UG_AL_2/0_Converse_2

New Line.l(r:p13udm27521-p13ulv90501) Units=km Length=0.0116286 bus1=p13udm27521.1.2 bus2=p13ulv90501.1.2 switch=n enabled=y phases=2 Linecode=1P_UG_AL_1/0_Brenau_2

New Line.l(r:p13udm27519-p13udm27521) Units=km Length=0.00989061 bus1=p13udm27519.1.2 bus2=p13udm27521.1.2 switch=n enabled=y phases=2 Linecode=1P_UG_AL_1/0_Brenau_2

New Line.l(r:p13udm27519-p13udt6389lv) Units=km Length=0.00989061 bus1=p13udt6389lv.1.2 bus2=p13udm27519.1.2 switch=n enabled=y phases=2 Linecode=1P_UG_AL_4/0_Sweetbriar_2

New Line.l(r:p13udm27523-p13ulv14213) Units=km Length=0.00734567 bus1=p13udm27523.1.2 bus2=p13ulv14213.1.2 switch=n enabled=y phases=2 Linecode=1P_UG_AL_2/0_Converse_2

New Line.l(r:p13udm27526-p13ulv88662) Units=km Length=0.0221434 bus1=p13udm27526.1.2 bus2=p13ulv88662.1.2 switch=n enabled=y phases=2 Linecode=1P_UG_AL_1/0_Brenau_2

New Line.l(r:p13udm27523-p13udm27526) Units=km Length=0.0287501 bus1=p13udm27523.1.2 bus2=p13udm27526.1.2 switch=n enabled=y phases=2 Linecode=1P_UG_AL_1/0_Brenau_2

New Line.l(r:p13udm27523-p13udt6390lv) Units=km Length=0.00957969 bus1=p13udt6390lv.1.2 bus2=p13udm27523.1.2 switch=n enabled=y phases=2 Linecode=1P_UG_AL_4/0_Sweetbriar_2

New Line.l(r:p13udm27524-p13ulv14214) Units=km Length=0.0143939 bus1=p13udm27524.1.2 bus2=p13ulv14214.1.2 switch=n enabled=y phases=2 Linecode=1P_UG_AL_2/0_Converse_2

New Line.l(r:p13udm27524-p13ulv14712) Units=km Length=0.0104515 bus1=p13udm27524.1.2 bus2=p13ulv14712.1.2 switch=n enabled=y phases=2 Linecode=1P_UG_AL_1/0_Brenau_2

New Line.l(r:p13udm27524-p13udt6390lv) Units=km Length=0.05256460000000001 bus1=p13udt6390lv.1.2 bus2=p13udm27524.1.2 switch=n enabled=y phases=2 Linecode=1P_UG_AL_4/0_Sweetbriar_2

New Line.l(r:p13udm27528-p13ulv14218) Units=km Length=0.0141723 bus1=p13udm27528.1.2 bus2=p13ulv14218.1.2 switch=n enabled=y phases=2 Linecode=1P_UG_AL_1/0_Brenau_2

New Line.l(r:p13udm27528-p13ulv14713) Units=km Length=0.0115543 bus1=p13udm27528.1.2 bus2=p13ulv14713.1.2 switch=n enabled=y phases=2 Linecode=1P_UG_AL_1/0_Brenau_2

New Line.l(r:p13udm27527-p13ulv14217) Units=km Length=0.0138505 bus1=p13udm27527.1.2 bus2=p13ulv14217.1.2 switch=n enabled=y phases=2 Linecode=1P_UG_AL_1/0_Brenau_2

New Line.l(r:p13udm27527-p13ulv88675) Units=km Length=0.011352400000000002 bus1=p13udm27527.1.2 bus2=p13ulv88675.1.2 switch=n enabled=y phases=2 Linecode=1P_UG_AL_1/0_Brenau_2

New Line.l(r:p13udm27527-p13udm27528) Units=km Length=0.00927876 bus1=p13udm27528.1.2 bus2=p13udm27527.1.2 switch=n enabled=y phases=2 Linecode=1P_UG_AL_2/0_Converse_2

New Line.l(r:p13udm27528-p13udt6391lv) Units=km Length=0.00927623 bus1=p13udt6391lv.1.2 bus2=p13udm27528.1.2 switch=n enabled=y phases=2 Linecode=1P_UG_AL_4/0_Sweetbriar_2

New Line.l(r:p13udm27531-p13ulv88693) Units=km Length=0.00821702 bus1=p13udm27531.1.2 bus2=p13ulv88693.1.2 switch=n enabled=y phases=2 Linecode=1P_UG_AL_1/0_Brenau_2

New Line.l(r:p13udm27531-p13udt6391lv) Units=km Length=0.0466248 bus1=p13udt6391lv.1.2 bus2=p13udm27531.1.2 switch=n enabled=y phases=2 Linecode=1P_UG_AL_1/0_Brenau_2

New Line.l(r:p13udt6392lv-p13ulv90414) Units=km Length=0.013452800000000001 bus1=p13udt6392lv.1.2 bus2=p13ulv90414.1.2 switch=n enabled=y phases=2 Linecode=1P_UG_AL_1/0_Brenau_2

New Line.l(r:p13udm27532-p13ulv14222) Units=km Length=0.0107466 bus1=p13udm27532.1.2 bus2=p13ulv14222.1.2 switch=n enabled=y phases=2 Linecode=1P_UG_AL_1/0_Brenau_2

New Line.l(r:p13udm27532-p13udt6392lv) Units=km Length=0.00956294 bus1=p13udt6392lv.1.2 bus2=p13udm27532.1.2 switch=n enabled=y phases=2 Linecode=1P_UG_AL_1/0_Brenau_2

New Line.l(r:p13udm27534-p13ulv90437) Units=km Length=0.0127641 bus1=p13udm27534.1.2 bus2=p13ulv90437.1.2 switch=n enabled=y phases=2 Linecode=1P_UG_AL_1/0_Brenau_2

New Line.l(r:p13udm27534-p13ulv90443) Units=km Length=0.0340207 bus1=p13udm27534.1.2 bus2=p13ulv90443.1.2 switch=n enabled=y phases=2 Linecode=1P_UG_AL_1/0_Brenau_2

New Line.l(r:p13udm27534-p13udt6392lv) Units=km Length=0.009571480000000002 bus1=p13udt6392lv.1.2 bus2=p13udm27534.1.2 switch=n enabled=y phases=2 Linecode=1P_UG_AL_2/0_Converse_2

New Line.l(r:p13udt6393lv-p13ulv14224) Units=km Length=0.014259 bus1=p13udt6393lv.1.2 bus2=p13ulv14224.1.2 switch=n enabled=y phases=2 Linecode=1P_UG_AL_1/0_Brenau_2

New Line.l(r:p13udt6393lv-p13ulv90394) Units=km Length=0.0132039 bus1=p13udt6393lv.1.2 bus2=p13ulv90394.1.2 switch=n enabled=y phases=2 Linecode=1P_UG_AL_1/0_Brenau_2

New Line.l(r:p13udm27536-p13ulv14223) Units=km Length=0.0133466 bus1=p13udm27536.1.2 bus2=p13ulv14223.1.2 switch=n enabled=y phases=2 Linecode=1P_UG_AL_1/0_Brenau_2

New Line.l(r:p13udm27536-p13ulv14231) Units=km Length=0.0134967 bus1=p13udm27536.1.2 bus2=p13ulv14231.1.2 switch=n enabled=y phases=2 Linecode=1P_UG_AL_1/0_Brenau_2

New Line.l(r:p13udm27536-p13udt6393lv) Units=km Length=0.009571480000000002 bus1=p13udt6393lv.1.2 bus2=p13udm27536.1.2 switch=n enabled=y phases=2 Linecode=1P_UG_AL_4/0_Sweetbriar_2

New Line.l(r:p13udm27542-p13ulv90408) Units=km Length=0.012914 bus1=p13udm27542.1.2 bus2=p13ulv90408.1.2 switch=n enabled=y phases=2 Linecode=1P_UG_AL_1/0_Brenau_2
