New Line.l(r:p13udt1521lv-p13ulv82093) Units=km Length=0.012353 bus1=p13udt1521lv.1.2 bus2=p13ulv82093.1.2 switch=n enabled=y phases=2 Linecode=1P_UG_AL_1/0_Brenau_2

New Line.l(r:p13udt1521lv-p13ulv83140) Units=km Length=0.0129155 bus1=p13udt1521lv.1.2 bus2=p13ulv83140.1.2 switch=n enabled=y phases=2 Linecode=1P_UG_AL_1/0_Brenau_2

New Line.l(r:p13udm6769-p13ulv3855) Units=km Length=0.012136700000000002 bus1=p13udm6769.1.2 bus2=p13ulv3855.1.2 switch=n enabled=y phases=2 Linecode=1P_UG_AL_1/0_Brenau_2

New Line.l(r:p13udm6770-p13ulv3856) Units=km Length=0.0107118 bus1=p13udm6770.1.2 bus2=p13ulv3856.1.2 switch=n enabled=y phases=2 Linecode=1P_UG_AL_1/0_Brenau_2

New Line.l(r:p13udm6772-p13ulv22175) Units=km Length=0.00830569 bus1=p13udm6772.1.2 bus2=p13ulv22175.1.2 switch=n enabled=y phases=2 Linecode=1P_UG_AL_1/0_Brenau_2

New Line.l(r:p13udm6770-p13udm6772) Units=km Length=0.0291177 bus1=p13udm6770.1.2 bus2=p13udm6772.1.2 switch=n enabled=y phases=2 Linecode=1P_UG_AL_1/0_Brenau_2

New Line.l(r:p13udm6769-p13udm6770) Units=km Length=0.00979012 bus1=p13udm6769.1.2 bus2=p13udm6770.1.2 switch=n enabled=y phases=2 Linecode=1P_UG_AL_2/0_Converse_2

New Line.l(r:p13udm6769-p13udt1521lv) Units=km Length=0.00979012 bus1=p13udt1521lv.1.2 bus2=p13udm6769.1.2 switch=n enabled=y phases=2 Linecode=1P_UG_AL_4/0_Sweetbriar_2

New Line.l(r:p13udm6774-p13ulv82103) Units=km Length=0.0133346 bus1=p13udm6774.1.2 bus2=p13ulv82103.1.2 switch=n enabled=y phases=2 Linecode=1P_UG_AL_1/0_Brenau_2

New Line.l(r:p13udm6771-p13ulv22160) Units=km Length=0.013038400000000002 bus1=p13udm6771.1.2 bus2=p13ulv22160.1.2 switch=n enabled=y phases=2 Linecode=1P_UG_AL_1/0_Brenau_2

New Line.l(r:p13udm6771-p13ulv83145) Units=km Length=0.0131456 bus1=p13udm6771.1.2 bus2=p13ulv83145.1.2 switch=n enabled=y phases=2 Linecode=1P_UG_AL_1/0_Brenau_2

New Line.l(r:p13udm6777-p13ulv83163) Units=km Length=0.0129951 bus1=p13udm6777.1.2 bus2=p13ulv83163.1.2 switch=n enabled=y phases=2 Linecode=1P_UG_AL_1/0_Brenau_2

New Line.l(r:p13udm6771-p13udm6777) Units=km Length=0.0293799 bus1=p13udm6771.1.2 bus2=p13udm6777.1.2 switch=n enabled=y phases=2 Linecode=1P_UG_AL_1/0_Brenau_2

New Line.l(r:p13udm6771-p13udm6774) Units=km Length=0.00979012 bus1=p13udm6774.1.2 bus2=p13udm6771.1.2 switch=n enabled=y phases=2 Linecode=1P_UG_AL_2/0_Converse_2

New Line.l(r:p13udm6774-p13udt1521lv) Units=km Length=0.00979012 bus1=p13udt1521lv.1.2 bus2=p13udm6774.1.2 switch=n enabled=y phases=2 Linecode=1P_UG_AL_4/0_Sweetbriar_2

New Line.l(r:p13udt1522lv-p13ulv3857) Units=km Length=0.00897878 bus1=p13udt1522lv.1.2 bus2=p13ulv3857.1.2 switch=n enabled=y phases=2 Linecode=1P_OH_AL_2/0_Rucina_2

New Line.l(r:p13udt1522lv-p13ulv22164) Units=km Length=0.0131523 bus1=p13udt1522lv.1.2 bus2=p13ulv22164.1.2 switch=n enabled=y phases=2 Linecode=1P_OH_AL_2/0_Rucina_2

New Line.l(r:p13udt1522lv-p13ulv22165) Units=km Length=0.0151037 bus1=p13udt1522lv.1.2 bus2=p13ulv22165.1.2 switch=n enabled=y phases=2 Linecode=1P_OH_AL_2/0_Rucina_2

New Line.l(r:p13udm6781-p13ulv22166) Units=km Length=0.012840900000000002 bus1=p13udm6781.1.2 bus2=p13ulv22166.1.2 switch=n enabled=y phases=2 Linecode=1P_OH_AL_2/0_Rucina_2

New Line.l(r:p13udm6781-p13ulv22167) Units=km Length=0.0300141 bus1=p13udm6781.1.2 bus2=p13ulv22167.1.2 switch=n enabled=y phases=2 Linecode=1P_OH_AL_4/0_Zuzara_2

New Line.l(r:p13udm6781-p13udt1522lv) Units=km Length=0.0193635 bus1=p13udt1522lv.1.2 bus2=p13udm6781.1.2 switch=n enabled=y phases=2 Linecode=1P_OH_AL_2/0_Rucina_2

New Line.l(r:p13udm6783-p13ulv83116) Units=km Length=0.012873100000000002 bus1=p13udm6783.1.2 bus2=p13ulv83116.1.2 switch=n enabled=y phases=2 Linecode=1P_OH_AL_2/0_Rucina_2

New Line.l(r:p13udm6783-p13udt1522lv) Units=km Length=0.019351 bus1=p13udt1522lv.1.2 bus2=p13udm6783.1.2 switch=n enabled=y phases=2 Linecode=1P_OH_AL_2/0_Rucina_2

New Line.l(r:p13udt1523lv-p13ulv80685) Units=km Length=0.0127265 bus1=p13udt1523lv.1.2 bus2=p13ulv80685.1.2 switch=n enabled=y phases=2 Linecode=1P_UG_AL_1/0_Brenau_2

New Line.l(r:p13udm6785-p13ulv3860) Units=km Length=0.0138482 bus1=p13udm6785.1.2 bus2=p13ulv3860.1.2 switch=n enabled=y phases=2 Linecode=1P_UG_AL_1/0_Brenau_2

New Line.l(r:p13udm6784-p13ulv3859) Units=km Length=0.0131825 bus1=p13udm6784.1.2 bus2=p13ulv3859.1.2 switch=n enabled=y phases=2 Linecode=1P_UG_AL_1/0_Brenau_2

New Line.l(r:p13udm6784-p13ulv78762) Units=km Length=0.0172534 bus1=p13udm6784.1.2 bus2=p13ulv78762.1.2 switch=n enabled=y phases=2 Linecode=1P_UG_AL_1/0_Brenau_2

New Line.l(r:p13udm6786-p13ulv16393) Units=km Length=0.012993900000000001 bus1=p13udm6786.1.2 bus2=p13ulv16393.1.2 switch=n enabled=y phases=2 Linecode=1P_UG_AL_1/0_Brenau_2

New Line.l(r:p13udm6784-p13udm6786) Units=km Length=0.00989626 bus1=p13udm6784.1.2 bus2=p13udm6786.1.2 switch=n enabled=y phases=2 Linecode=1P_UG_AL_1/0_Brenau_2

New Line.l(r:p13udm6784-p13udm6785) Units=km Length=0.00989626 bus1=p13udm6785.1.2 bus2=p13udm6784.1.2 switch=n enabled=y phases=2 Linecode=1P_UG_AL_4/0_Sweetbriar_2

New Line.l(r:p13udm6785-p13udt1523lv) Units=km Length=0.00988382 bus1=p13udt1523lv.1.2 bus2=p13udm6785.1.2 switch=n enabled=y phases=2 Linecode=1P_UG_AL_4/0_Sweetbriar_2

New Line.l(r:p13udm6789-p13ulv80680) Units=km Length=0.012646300000000001 bus1=p13udm6789.1.2 bus2=p13ulv80680.1.2 switch=n enabled=y phases=2 Linecode=1P_UG_AL_1/0_Brenau_2

New Line.l(r:p13udm6789-p13ulv81347) Units=km Length=0.0135654 bus1=p13udm6789.1.2 bus2=p13ulv81347.1.2 switch=n enabled=y phases=2 Linecode=1P_UG_AL_1/0_Brenau_2

New Line.l(r:p13udm6788-p13ulv80676) Units=km Length=0.012162 bus1=p13udm6788.1.2 bus2=p13ulv80676.1.2 switch=n enabled=y phases=2 Linecode=1P_UG_AL_1/0_Brenau_2

New Line.l(r:p13udm6788-p13udm6789) Units=km Length=0.00988668 bus1=p13udm6789.1.2 bus2=p13udm6788.1.2 switch=n enabled=y phases=2 Linecode=1P_UG_AL_1/0_Brenau_2

New Line.l(r:p13udm6789-p13udt1523lv) Units=km Length=0.00989626 bus1=p13udt1523lv.1.2 bus2=p13udm6789.1.2 switch=n enabled=y phases=2 Linecode=1P_UG_AL_4/0_Sweetbriar_2

New Line.l(r:p13udt1524lv-p13ulv3862) Units=km Length=0.0136268 bus1=p13udt1524lv.1.2 bus2=p13ulv3862.1.2 switch=n enabled=y phases=2 Linecode=1P_UG_AL_1/0_Brenau_2

New Line.l(r:p13udm6792-p13ulv3861) Units=km Length=0.0138052 bus1=p13udm6792.1.2 bus2=p13ulv3861.1.2 switch=n enabled=y phases=2 Linecode=1P_UG_AL_1/0_Brenau_2

New Line.l(r:p13udm6792-p13udt1524lv) Units=km Length=0.0299093 bus1=p13udt1524lv.1.2 bus2=p13udm6792.1.2 switch=n enabled=y phases=2 Linecode=1P_UG_AL_1/0_Brenau_2

New Line.l(r:p13udm6796-p13ulv83244) Units=km Length=0.013143 bus1=p13udm6796.1.2 bus2=p13ulv83244.1.2 switch=n enabled=y phases=2 Linecode=1P_UG_AL_1/0_Brenau_2

New Line.l(r:p13udm6795-p13ulv83235) Units=km Length=0.0110383 bus1=p13udm6795.1.2 bus2=p13ulv83235.1.2 switch=n enabled=y phases=2 Linecode=1P_OH_AL_2/0_Rucina_2

New Line.l(r:p13udm6794-p13ulv3863) Units=km Length=0.0130631 bus1=p13udm6794.1.2 bus2=p13ulv3863.1.2 switch=n enabled=y phases=2 Linecode=1P_OH_AL_2/0_Rucina_2

New Line.l(r:p13udm6794-p13udm6795) Units=km Length=0.0591422 bus1=p13udm6795.1.2 bus2=p13udm6794.1.2 switch=n enabled=y phases=2 Linecode=1P_OH_AL_4/0_Zuzara_2

New Line.l(r:p13udm6795-p13udm6796) Units=km Length=0.03966190000000001 bus1=p13udm6796.1.2 bus2=p13udm6795.1.2 switch=n enabled=y phases=2 Linecode=1P_OH_AL_4/0_Zuzara_2

New Line.l(r:p13udm6796-p13udt1524lv) Units=km Length=0.009963630000000001 bus1=p13udt1524lv.1.2 bus2=p13udm6796.1.2 switch=n enabled=y phases=2 Linecode=1P_UG_AL_4/0_Sweetbriar_2

New Line.l(r:p13udt1527lv-p13ulv83179) Units=km Length=0.0167265 bus1=p13udt1527lv.1.2 bus2=p13ulv83179.1.2 switch=n enabled=y phases=2 Linecode=1P_OH_AL_2/0_Rucina_2

New Line.l(r:p13udm6801-p13ulv3867) Units=km Length=0.0154998 bus1=p13udm6801.1.2 bus2=p13ulv3867.1.2 switch=n enabled=y phases=2 Linecode=1P_OH_AL_2/0_Rucina_2

New Line.l(r:p13udm6801-p13udt1527lv) Units=km Length=0.0198464 bus1=p13udt1527lv.1.2 bus2=p13udm6801.1.2 switch=n enabled=y phases=2 Linecode=1P_OH_AL_2/0_Rucina_2

New Line.l(r:p13udt1528lv-p13ulv3868) Units=km Length=0.015152 bus1=p13udt1528lv.1.2 bus2=p13ulv3868.1.2 switch=n enabled=y phases=2 Linecode=1P_OH_AL_2/0_Rucina_2

New Line.l(r:p13udt1529lv-p13ulv3869) Units=km Length=0.0148226 bus1=p13udt1529lv.1.2 bus2=p13ulv3869.1.2 switch=n enabled=y phases=2 Linecode=1P_OH_AL_2/0_Rucina_2

New Line.l(r:p13udt1531lv-p13ulv3872) Units=km Length=0.0138932 bus1=p13udt1531lv.1.2 bus2=p13ulv3872.1.2 switch=n enabled=y phases=2 Linecode=1P_OH_AL_2/0_Rucina_2

New Line.l(r:p13udt1532lv-p13ulv3873) Units=km Length=0.0153957 bus1=p13udt1532lv.1.2 bus2=p13ulv3873.1.2 switch=n enabled=y phases=2 Linecode=1P_OH_AL_2/0_Rucina_2

New Line.l(r:p13udt7267lv-p13ulv16464) Units=km Length=0.0116998 bus1=p13udt7267lv.1.2 bus2=p13ulv16464.1.2 switch=n enabled=y phases=2 Linecode=1P_OH_AL_2/0_Rucina_2

New Line.l(r:p13udt7267lv-p13ulv77206) Units=km Length=0.0133798 bus1=p13udt7267lv.1.2 bus2=p13ulv77206.1.2 switch=n enabled=y phases=2 Linecode=1P_OH_AL_2/0_Rucina_2

New Line.l(r:p13udm31470-p13ulv15987) Units=km Length=0.0131128 bus1=p13udm31470.1.2 bus2=p13ulv15987.1.2 switch=n enabled=y phases=2 Linecode=1P_UG_AL_1/0_Brenau_2

New Line.l(r:p13udm31470-p13udt7267lv) Units=km Length=0.0195767 bus1=p13udt7267lv.1.2 bus2=p13udm31470.1.2 switch=n enabled=y phases=2 Linecode=1P_OH_AL_2/0_Rucina_2

New Line.l(r:p13udm31471-p13ulv16463) Units=km Length=0.0117738 bus1=p13udm31471.1.2 bus2=p13ulv16463.1.2 switch=n enabled=y phases=2 Linecode=1P_OH_AL_2/0_Rucina_2

New Line.l(r:p13udm31471-p13ulv75335) Units=km Length=0.012286300000000002 bus1=p13udm31471.1.2 bus2=p13ulv75335.1.2 switch=n enabled=y phases=2 Linecode=1P_OH_AL_2/0_Rucina_2

New Line.l(r:p13udm31471-p13ulv77219) Units=km Length=0.0300206 bus1=p13udm31471.1.2 bus2=p13ulv77219.1.2 switch=n enabled=y phases=2 Linecode=1P_OH_AL_4/0_Zuzara_2

New Line.l(r:p13udm31471-p13ulv77220) Units=km Length=0.012676 bus1=p13udm31471.1.2 bus2=p13ulv77220.1.2 switch=n enabled=y phases=2 Linecode=1P_OH_AL_2/0_Rucina_2

New Line.l(r:p13udm31471-p13ulv77235) Units=km Length=0.0149116 bus1=p13udm31471.1.2 bus2=p13ulv77235.1.2 switch=n enabled=y phases=2 Linecode=1P_OH_AL_2/0_Rucina_2

New Line.l(r:p13udm31471-p13udt7267lv) Units=km Length=0.0195853 bus1=p13udt7267lv.1.2 bus2=p13udm31471.1.2 switch=n enabled=y phases=2 Linecode=1P_OH_AL_2/0_Rucina_2_7

New Line.l(r:p13udt7268lv-p13ulv15988) Units=km Length=0.0114681 bus1=p13udt7268lv.1.2 bus2=p13ulv15988.1.2 switch=n enabled=y phases=2 Linecode=1P_UG_AL_2/0_Converse_2

New Line.l(r:p13udm31479-p13ulv77143) Units=km Length=0.0145049 bus1=p13udm31479.1.2 bus2=p13ulv77143.1.2 switch=n enabled=y phases=2 Linecode=1P_UG_AL_4/0_Sweetbriar_2

New Line.l(r:p13udm31479-p13udt7268lv) Units=km Length=0.00969376 bus1=p13udt7268lv.1.2 bus2=p13udm31479.1.2 switch=n enabled=y phases=2 Linecode=1P_UG_AL_4/0_Sweetbriar_2

New Line.l(r:p13udm31480-p13ulv77152) Units=km Length=0.013686 bus1=p13udm31480.1.2 bus2=p13ulv77152.1.2 switch=n enabled=y phases=2 Linecode=1P_UG_AL_1/0_Brenau_2

New Line.l(r:p13udm31480-p13udt7268lv) Units=km Length=0.00969881 bus1=p13udt7268lv.1.2 bus2=p13udm31480.1.2 switch=n enabled=y phases=2 Linecode=1P_UG_AL_1/0_Brenau_2

New Line.l(r:p13udt7269lv-p13ulv16439) Units=km Length=0.0151524 bus1=p13udt7269lv.1.2 bus2=p13ulv16439.1.2 switch=n enabled=y phases=2 Linecode=1P_UG_AL_1/0_Brenau_2

New Line.l(r:p13udt7269lv-p13ulv77172) Units=km Length=0.0125775 bus1=p13udt7269lv.1.2 bus2=p13ulv77172.1.2 switch=n enabled=y phases=2 Linecode=1P_UG_AL_4/0_Sweetbriar_2

New Line.l(r:p13udt7269lv-p13ulv77194) Units=km Length=0.034895600000000006 bus1=p13udt7269lv.1.2 bus2=p13ulv77194.1.2 switch=n enabled=y phases=2 Linecode=1P_UG_AL_1/0_Brenau_2

New Line.l(r:p13udt7269lv-p13ulv77197) Units=km Length=0.04846910000000001 bus1=p13udt7269lv.1.2 bus2=p13ulv77197.1.2 switch=n enabled=y phases=2 Linecode=1P_UG_AL_1/0_Brenau_2

New Line.l(r:p13udm31481-p13ulv15989) Units=km Length=0.0277465 bus1=p13udm31481.1.2 bus2=p13ulv15989.1.2 switch=n enabled=y phases=2 Linecode=1P_UG_AL_1/0_Brenau_2

New Line.l(r:p13udm31485-p13ulv77188) Units=km Length=0.00977929 bus1=p13udm31485.1.2 bus2=p13ulv77188.1.2 switch=n enabled=y phases=2 Linecode=1P_UG_AL_1/0_Brenau_2

New Line.l(r:p13udm31481-p13udm31485) Units=km Length=0.0290878 bus1=p13udm31481.1.2 bus2=p13udm31485.1.2 switch=n enabled=y phases=2 Linecode=1P_UG_AL_1/0_Brenau_2

New Line.l(r:p13udm31481-p13udt7269lv) Units=km Length=0.019383900000000003 bus1=p13udt7269lv.1.2 bus2=p13udm31481.1.2 switch=n enabled=y phases=2 Linecode=1P_UG_AL_1/0_Brenau_2

New Line.l(r:p13udm31483-p13ulv77159) Units=km Length=0.0146409 bus1=p13udm31483.1.2 bus2=p13ulv77159.1.2 switch=n enabled=y phases=2 Linecode=1P_UG_AL_1/0_Brenau_2

New Line.l(r:p13udm31483-p13udt7269lv) Units=km Length=0.0387816 bus1=p13udt7269lv.1.2 bus2=p13udm31483.1.2 switch=n enabled=y phases=2 Linecode=1P_UG_AL_1/0_Brenau_2

New Line.l(r:p13udt7461lv-p13ulv78789) Units=km Length=0.011537 bus1=p13udt7461lv.1.2 bus2=p13ulv78789.1.2 switch=n enabled=y phases=2 Linecode=1P_UG_AL_1/0_Brenau_2

New Line.l(r:p13udm32295-p13ulv16384) Units=km Length=0.0453824 bus1=p13udm32295.1.2 bus2=p13ulv16384.1.2 switch=n enabled=y phases=2 Linecode=1P_UG_AL_1/0_Brenau_2

New Line.l(r:p13udm32294-p13ulv16382) Units=km Length=0.0145562 bus1=p13udm32294.1.2 bus2=p13ulv16382.1.2 switch=n enabled=y phases=2 Linecode=1P_UG_AL_1/0_Brenau_2

New Line.l(r:p13udm32294-p13udm32295) Units=km Length=0.009479860000000001 bus1=p13udm32295.1.2 bus2=p13udm32294.1.2 switch=n enabled=y phases=2 Linecode=1P_UG_AL_1/0_Brenau_2

New Line.l(r:p13udm32295-p13udt7461lv) Units=km Length=0.009470300000000001 bus1=p13udt7461lv.1.2 bus2=p13udm32295.1.2 switch=n enabled=y phases=2 Linecode=1P_UG_AL_1/0_Brenau_2

New Line.l(r:p13udm32296-p13ulv78786) Units=km Length=0.0152906 bus1=p13udm32296.1.2 bus2=p13ulv78786.1.2 switch=n enabled=y phases=2 Linecode=1P_UG_AL_1/0_Brenau_2

New Line.l(r:p13udm32296-p13ulv78795) Units=km Length=0.011805600000000001 bus1=p13udm32296.1.2 bus2=p13ulv78795.1.2 switch=n enabled=y phases=2 Linecode=1P_UG_AL_1/0_Brenau_2

New Line.l(r:p13udm32293-p13ulv16373) Units=km Length=0.0146095 bus1=p13udm32293.1.2 bus2=p13ulv16373.1.2 switch=n enabled=y phases=2 Linecode=1P_UG_AL_1/0_Brenau_2

New Line.l(r:p13udm32293-p13udm32296) Units=km Length=0.009479860000000001 bus1=p13udm32296.1.2 bus2=p13udm32293.1.2 switch=n enabled=y phases=2 Linecode=1P_UG_AL_1/0_Brenau_2

New Line.l(r:p13udm32296-p13udt7461lv) Units=km Length=0.009479860000000001 bus1=p13udt7461lv.1.2 bus2=p13udm32296.1.2 switch=n enabled=y phases=2 Linecode=1P_UG_AL_4/0_Sweetbriar_2

New Line.l(r:p13udt7463lv-p13ulv16378) Units=km Length=0.013646000000000002 bus1=p13udt7463lv.1.2 bus2=p13ulv16378.1.2 switch=n enabled=y phases=2 Linecode=1P_UG_AL_1/0_Brenau_2

New Line.l(r:p13udm32300-p13ulv16375) Units=km Length=0.027943 bus1=p13udm32300.1.2 bus2=p13ulv16375.1.2 switch=n enabled=y phases=2 Linecode=1P_UG_AL_2/0_Converse_2

New Line.l(r:p13udm32300-p13udt7463lv) Units=km Length=0.00925728 bus1=p13udt7463lv.1.2 bus2=p13udm32300.1.2 switch=n enabled=y phases=2 Linecode=1P_UG_AL_2/0_Converse_2

New Line.l(r:p13udm32301-p13ulv16377) Units=km Length=0.0100376 bus1=p13udm32301.1.2 bus2=p13ulv16377.1.2 switch=n enabled=y phases=2 Linecode=1P_UG_AL_4/0_Sweetbriar_2

New Line.l(r:p13udm32301-p13udt7463lv) Units=km Length=0.0185211 bus1=p13udt7463lv.1.2 bus2=p13udm32301.1.2 switch=n enabled=y phases=2 Linecode=1P_UG_AL_4/0_Sweetbriar_2

New Line.l(r:p13udt7464lv-p13ulv78763) Units=km Length=0.0143603 bus1=p13udt7464lv.1.2 bus2=p13ulv78763.1.2 switch=n enabled=y phases=2 Linecode=1P_UG_AL_1/0_Brenau_2

New Line.l(r:p13udm32303-p13ulv16376) Units=km Length=0.014324700000000001 bus1=p13udm32303.1.2 bus2=p13ulv16376.1.2 switch=n enabled=y phases=2 Linecode=1P_UG_AL_1/0_Brenau_2

New Line.l(r:p13udm32303-p13ulv16381) Units=km Length=0.0113457 bus1=p13udm32303.1.2 bus2=p13ulv16381.1.2 switch=n enabled=y phases=2 Linecode=1P_UG_AL_1/0_Brenau_2

New Line.l(r:p13udm32307-p13ulv80664) Units=km Length=0.0107972 bus1=p13udm32307.1.2 bus2=p13ulv80664.1.2 switch=n enabled=y phases=2 Linecode=1P_UG_AL_1/0_Brenau_2

New Line.l(r:p13udm32303-p13udm32307) Units=km Length=0.0189502 bus1=p13udm32303.1.2 bus2=p13udm32307.1.2 switch=n enabled=y phases=2 Linecode=1P_UG_AL_1/0_Brenau_2

New Line.l(r:p13udm32303-p13udt7464lv) Units=km Length=0.00947325 bus1=p13udt7464lv.1.2 bus2=p13udm32303.1.2 switch=n enabled=y phases=2 Linecode=1P_UG_AL_4/0_Sweetbriar_2

New Line.l(r:p13udm32308-p13ulv80679) Units=km Length=0.0156127 bus1=p13udm32308.1.2 bus2=p13ulv80679.1.2 switch=n enabled=y phases=2 Linecode=1P_UG_AL_1/0_Brenau_2

New Line.l(r:p13udm32305-p13ulv16383) Units=km Length=0.0140291 bus1=p13udm32305.1.2 bus2=p13ulv16383.1.2 switch=n enabled=y phases=2 Linecode=1P_UG_AL_1/0_Brenau_2

New Line.l(r:p13udm32305-p13udm32308) Units=km Length=0.009479860000000001 bus1=p13udm32308.1.2 bus2=p13udm32305.1.2 switch=n enabled=y phases=2 Linecode=1P_UG_AL_1/0_Brenau_2

New Line.l(r:p13udm32308-p13udt7464lv) Units=km Length=0.009479860000000001 bus1=p13udt7464lv.1.2 bus2=p13udm32308.1.2 switch=n enabled=y phases=2 Linecode=1P_UG_AL_1/0_Brenau_2

New Line.l(r:p13udt7465lv-p13ulv16380) Units=km Length=0.0130593 bus1=p13udt7465lv.1.2 bus2=p13ulv16380.1.2 switch=n enabled=y phases=2 Linecode=1P_UG_AL_1/0_Brenau_2

New Line.l(r:p13udt7465lv-p13ulv81345) Units=km Length=0.00979165 bus1=p13udt7465lv.1.2 bus2=p13ulv81345.1.2 switch=n enabled=y phases=2 Linecode=1P_UG_AL_1/0_Brenau_2

New Line.l(r:p13udm32309-p13ulv16379) Units=km Length=0.0114501 bus1=p13udm32309.1.2 bus2=p13ulv16379.1.2 switch=n enabled=y phases=2 Linecode=1P_UG_AL_1/0_Brenau_2

New Line.l(r:p13udm32309-p13udt7465lv) Units=km Length=0.00988668 bus1=p13udt7465lv.1.2 bus2=p13udm32309.1.2 switch=n enabled=y phases=2 Linecode=1P_UG_AL_1/0_Brenau_2

New Line.l(r:p13udt7466lv-p13ulv16385) Units=km Length=0.0108557 bus1=p13udt7466lv.1.2 bus2=p13ulv16385.1.2 switch=n enabled=y phases=2 Linecode=1P_UG_AL_2/0_Converse_2

New Line.l(r:p13udt7466lv-p13ulv78820) Units=km Length=0.0104399 bus1=p13udt7466lv.1.2 bus2=p13ulv78820.1.2 switch=n enabled=y phases=2 Linecode=1P_UG_AL_1/0_Brenau_2

New Line.l(r:p13udm32313-p13ulv16386) Units=km Length=0.0133736 bus1=p13udm32313.1.2 bus2=p13ulv16386.1.2 switch=n enabled=y phases=2 Linecode=1P_UG_AL_1/0_Brenau_2

New Line.l(r:p13udm32313-p13ulv16387) Units=km Length=0.00848764 bus1=p13udm32313.1.2 bus2=p13ulv16387.1.2 switch=n enabled=y phases=2 Linecode=1P_UG_AL_1/0_Brenau_2

New Line.l(r:p13udm32313-p13udt7466lv) Units=km Length=0.00930499 bus1=p13udt7466lv.1.2 bus2=p13udm32313.1.2 switch=n enabled=y phases=2 Linecode=1P_UG_AL_1/0_Brenau_2

New Line.l(r:p13udm32320-p13ulv80666) Units=km Length=0.0138902 bus1=p13udm32320.1.2 bus2=p13ulv80666.1.2 switch=n enabled=y phases=2 Linecode=1P_UG_AL_1/0_Brenau_2

New Line.l(r:p13udm32319-p13ulv80646) Units=km Length=0.0142747 bus1=p13udm32319.1.2 bus2=p13ulv80646.1.2 switch=n enabled=y phases=2 Linecode=1P_UG_AL_1/0_Brenau_2

New Line.l(r:p13udm32323-p13ulv81350) Units=km Length=0.0385793 bus1=p13udm32323.1.2 bus2=p13ulv81350.1.2 switch=n enabled=y phases=2 Linecode=1P_UG_AL_1/0_Brenau_2

New Line.l(r:p13udm32322-p13ulv81341) Units=km Length=0.014075600000000002 bus1=p13udm32322.1.2 bus2=p13ulv81341.1.2 switch=n enabled=y phases=2 Linecode=1P_UG_AL_4/0_Sweetbriar_2

New Line.l(r:p13udm32324-p13ulv81360) Units=km Length=0.0142719 bus1=p13udm32324.1.2 bus2=p13ulv81360.1.2 switch=n enabled=y phases=2 Linecode=1P_UG_AL_1/0_Brenau_2

New Line.l(r:p13udm32322-p13udm32324) Units=km Length=0.00984169 bus1=p13udm32322.1.2 bus2=p13udm32324.1.2 switch=n enabled=y phases=2 Linecode=1P_UG_AL_1/0_Brenau_2

New Line.l(r:p13udm32322-p13udm32323) Units=km Length=0.00982923 bus1=p13udm32323.1.2 bus2=p13udm32322.1.2 switch=n enabled=y phases=2 Linecode=1P_UG_AL_4/0_Sweetbriar_2

New Line.l(r:p13udm32319-p13udm32323) Units=km Length=0.00984169 bus1=p13udm32319.1.2 bus2=p13udm32323.1.2 switch=n enabled=y phases=2 Linecode=1P_UG_AL_4/0_Sweetbriar_2

New Line.l(r:p13udm32319-p13udm32320) Units=km Length=0.00982923 bus1=p13udm32320.1.2 bus2=p13udm32319.1.2 switch=n enabled=y phases=2 Linecode=1P_UG_AL_4/0_Sweetbriar_2

New Line.l(r:p13udm32320-p13udt7467lv) Units=km Length=0.00983212 bus1=p13udt7467lv.1.2 bus2=p13udm32320.1.2 switch=n enabled=y phases=2 Linecode=1P_UG_AL_4/0_Sweetbriar_2

New Line.l(r:p13udm32321-p13ulv80677) Units=km Length=0.00958282 bus1=p13udm32321.1.2 bus2=p13ulv80677.1.2 switch=n enabled=y phases=2 Linecode=1P_UG_AL_1/0_Brenau_2

New Line.l(r:p13udm32318-p13ulv78773) Units=km Length=0.00970452 bus1=p13udm32318.1.2 bus2=p13ulv78773.1.2 switch=n enabled=y phases=2 Linecode=1P_UG_AL_1/0_Brenau_2

New Line.l(r:p13udm32317-p13ulv16389) Units=km Length=0.00772385 bus1=p13udm32317.1.2 bus2=p13ulv16389.1.2 switch=n enabled=y phases=2 Linecode=1P_UG_AL_1/0_Brenau_2

New Line.l(r:p13udm32316-p13ulv16388) Units=km Length=0.012616 bus1=p13udm32316.1.2 bus2=p13ulv16388.1.2 switch=n enabled=y phases=2 Linecode=1P_UG_AL_1/0_Brenau_2

New Line.l(r:p13udm32316-p13udm32317) Units=km Length=0.00930798 bus1=p13udm32317.1.2 bus2=p13udm32316.1.2 switch=n enabled=y phases=2 Linecode=1P_UG_AL_1/0_Brenau_2

New Line.l(r:p13udm32317-p13udm32318) Units=km Length=0.00930798 bus1=p13udm32318.1.2 bus2=p13udm32317.1.2 switch=n enabled=y phases=2 Linecode=1P_UG_AL_1/0_Brenau_2

New Line.l(r:p13udm32318-p13udm32321) Units=km Length=0.0284968 bus1=p13udm32321.1.2 bus2=p13udm32318.1.2 switch=n enabled=y phases=2 Linecode=1P_UG_AL_2/0_Converse_2

New Line.l(r:p13udm32321-p13udt7467lv) Units=km Length=0.0295547 bus1=p13udt7467lv.1.2 bus2=p13udm32321.1.2 switch=n enabled=y phases=2 Linecode=1P_UG_AL_4/0_Sweetbriar_2

New Line.l(r:p13udt7468lv-p13ulv16391) Units=km Length=0.0130139 bus1=p13udt7468lv.1.2 bus2=p13ulv16391.1.2 switch=n enabled=y phases=2 Linecode=1P_UG_AL_1/0_Brenau_2

New Line.l(r:p13udt7468lv-p13ulv78785) Units=km Length=0.0349062 bus1=p13udt7468lv.1.2 bus2=p13ulv78785.1.2 switch=n enabled=y phases=2 Linecode=1P_UG_AL_1/0_Brenau_2

New Line.l(r:p13udt7468lv-p13ulv80660) Units=km Length=0.0118063 bus1=p13udt7468lv.1.2 bus2=p13ulv80660.1.2 switch=n enabled=y phases=2 Linecode=1P_UG_AL_1/0_Brenau_2

New Line.l(r:p13udm32325-p13ulv16390) Units=km Length=0.010212900000000002 bus1=p13udm32325.1.2 bus2=p13ulv16390.1.2 switch=n enabled=y phases=2 Linecode=1P_UG_AL_1/0_Brenau_2

New Line.l(r:p13udm32325-p13ulv80662) Units=km Length=0.0103189 bus1=p13udm32325.1.2 bus2=p13ulv80662.1.2 switch=n enabled=y phases=2 Linecode=1P_UG_AL_1/0_Brenau_2

New Line.l(r:p13udm32325-p13udt7468lv) Units=km Length=0.00989626 bus1=p13udt7468lv.1.2 bus2=p13udm32325.1.2 switch=n enabled=y phases=2 Linecode=1P_UG_AL_1/0_Brenau_2

New Line.l(r:p13udm32329-p13ulv78767) Units=km Length=0.012826700000000002 bus1=p13udm32329.1.2 bus2=p13ulv78767.1.2 switch=n enabled=y phases=2 Linecode=1P_UG_AL_1/0_Brenau_2

New Line.l(r:p13udm32327-p13ulv16392) Units=km Length=0.0144588 bus1=p13udm32327.1.2 bus2=p13ulv16392.1.2 switch=n enabled=y phases=2 Linecode=1P_UG_AL_1/0_Brenau_2

New Line.l(r:p13udm32327-p13ulv78765) Units=km Length=0.0163719 bus1=p13udm32327.1.2 bus2=p13ulv78765.1.2 switch=n enabled=y phases=2 Linecode=1P_UG_AL_1/0_Brenau_2

New Line.l(r:p13udm32327-p13udm32329) Units=km Length=0.00989626 bus1=p13udm32329.1.2 bus2=p13udm32327.1.2 switch=n enabled=y phases=2 Linecode=1P_UG_AL_1/0_Brenau_2

New Line.l(r:p13udm32329-p13udt7468lv) Units=km Length=0.00988382 bus1=p13udt7468lv.1.2 bus2=p13udm32329.1.2 switch=n enabled=y phases=2 Linecode=1P_UG_AL_4/0_Sweetbriar_2

New Line.l(r:p13udt7470lv-p13ulv80673) Units=km Length=0.0139438 bus1=p13udt7470lv.1.2 bus2=p13ulv80673.1.2 switch=n enabled=y phases=2 Linecode=1P_UG_AL_1/0_Brenau_2

New Line.l(r:p13udm32334-p13ulv16395) Units=km Length=0.0157081 bus1=p13udm32334.1.2 bus2=p13ulv16395.1.2 switch=n enabled=y phases=2 Linecode=1P_UG_AL_1/0_Brenau_2

New Line.l(r:p13udm32334-p13ulv78760) Units=km Length=0.012949 bus1=p13udm32334.1.2 bus2=p13ulv78760.1.2 switch=n enabled=y phases=2 Linecode=1P_UG_AL_1/0_Brenau_2

New Line.l(r:p13udm32339-p13ulv80675) Units=km Length=0.0435256 bus1=p13udm32339.1.2 bus2=p13ulv80675.1.2 switch=n enabled=y phases=2 Linecode=1P_UG_AL_1/0_Brenau_2

New Line.l(r:p13udm32334-p13udm32339) Units=km Length=0.00855641 bus1=p13udm32334.1.2 bus2=p13udm32339.1.2 switch=n enabled=y phases=2 Linecode=1P_UG_AL_1/0_Brenau_2

New Line.l(r:p13udm32334-p13udt7470lv) Units=km Length=0.008544 bus1=p13udt7470lv.1.2 bus2=p13udm32334.1.2 switch=n enabled=y phases=2 Linecode=1P_UG_AL_4/0_Sweetbriar_2

New Line.l(r:p13udm32335-p13ulv16396) Units=km Length=0.0149101 bus1=p13udm32335.1.2 bus2=p13ulv16396.1.2 switch=n enabled=y phases=2 Linecode=1P_UG_AL_1/0_Brenau_2

New Line.l(r:p13udm32335-p13ulv80665) Units=km Length=0.0148995 bus1=p13udm32335.1.2 bus2=p13ulv80665.1.2 switch=n enabled=y phases=2 Linecode=1P_UG_AL_1/0_Brenau_2

New Line.l(r:p13udm32335-p13udt7470lv) Units=km Length=0.008544 bus1=p13udt7470lv.1.2 bus2=p13udm32335.1.2 switch=n enabled=y phases=2 Linecode=1P_UG_AL_1/0_Brenau_2

New Line.l(r:p13udt7471lv-p13ulv16397) Units=km Length=0.00965238 bus1=p13udt7471lv.1.2 bus2=p13ulv16397.1.2 switch=n enabled=y phases=2 Linecode=1P_OH_AL_2/0_Rucina_2

New Line.l(r:p13udm32341-p13ulv16399) Units=km Length=0.010748100000000002 bus1=p13udm32341.1.2 bus2=p13ulv16399.1.2 switch=n enabled=y phases=2 Linecode=1P_OH_AL_2/0_Rucina_2

New Line.l(r:p13udm32341-p13udt7471lv) Units=km Length=0.0173535 bus1=p13udt7471lv.1.2 bus2=p13udm32341.1.2 switch=n enabled=y phases=2 Linecode=1P_OH_AL_2/0_Rucina_2

New Line.l(r:p13udm32342-p13ulv78906) Units=km Length=0.00963874 bus1=p13udm32342.1.2 bus2=p13ulv78906.1.2 switch=n enabled=y phases=2 Linecode=1P_OH_AL_2/0_Rucina_2

New Line.l(r:p13udm32342-p13udt7471lv) Units=km Length=0.0173395 bus1=p13udt7471lv.1.2 bus2=p13udm32342.1.2 switch=n enabled=y phases=2 Linecode=1P_OH_AL_2/0_Rucina_2

New Line.l(r:p13udt7472lv-p13ulv16398) Units=km Length=0.015059 bus1=p13udt7472lv.1.2 bus2=p13ulv16398.1.2 switch=n enabled=y phases=2 Linecode=1P_OH_AL_2/0_Rucina_2

New Line.l(r:p13udm32344-p13ulv78930) Units=km Length=0.0108052 bus1=p13udm32344.1.2 bus2=p13ulv78930.1.2 switch=n enabled=y phases=2 Linecode=1P_OH_AL_2/0_Rucina_2

New Line.l(r:p13udm32344-p13udt7472lv) Units=km Length=0.0180854 bus1=p13udt7472lv.1.2 bus2=p13udm32344.1.2 switch=n enabled=y phases=2 Linecode=1P_OH_AL_2/0_Rucina_2

New Line.l(r:p13udt7477lv-p13ulv78800) Units=km Length=0.0301218 bus1=p13udt7477lv.1.2 bus2=p13ulv78800.1.2 switch=n enabled=y phases=2 Linecode=1P_OH_AL_4/0_Zuzara_2

New Line.l(r:p13udt7477lv-p13ulv78814) Units=km Length=0.0141728 bus1=p13udt7477lv.1.2 bus2=p13ulv78814.1.2 switch=n enabled=y phases=2 Linecode=1P_OH_AL_2/0_Rucina_2

New Line.l(r:p13udt7477lv-p13ulv78843) Units=km Length=0.0118082 bus1=p13udt7477lv.1.2 bus2=p13ulv78843.1.2 switch=n enabled=y phases=2 Linecode=1P_OH_AL_2/0_Rucina_2

New Line.l(r:p13udm32363-p13ulv16408) Units=km Length=0.0135883 bus1=p13udm32363.1.2 bus2=p13ulv16408.1.2 switch=n enabled=y phases=2 Linecode=1P_OH_AL_2/0_Rucina_2

New Line.l(r:p13udm32363-p13ulv78808) Units=km Length=0.0121491 bus1=p13udm32363.1.2 bus2=p13ulv78808.1.2 switch=n enabled=y phases=2 Linecode=1P_OH_AL_2/0_Rucina_2

New Line.l(r:p13udm32363-p13ulv78842) Units=km Length=0.0135812 bus1=p13udm32363.1.2 bus2=p13ulv78842.1.2 switch=n enabled=y phases=2 Linecode=1P_OH_AL_2/0_Rucina_2

New Line.l(r:p13udm32363-p13ulv78857) Units=km Length=0.0298885 bus1=p13udm32363.1.2 bus2=p13ulv78857.1.2 switch=n enabled=y phases=2 Linecode=1P_OH_AL_4/0_Zuzara_2

New Line.l(r:p13udm32363-p13udt7477lv) Units=km Length=0.0178079 bus1=p13udt7477lv.1.2 bus2=p13udm32363.1.2 switch=n enabled=y phases=2 Linecode=1P_OH_AL_2/0_Rucina_2

New Line.l(r:p13udm32366-p13ulv78813) Units=km Length=0.011822700000000002 bus1=p13udm32366.1.2 bus2=p13ulv78813.1.2 switch=n enabled=y phases=2 Linecode=1P_OH_AL_2/0_Rucina_2

New Line.l(r:p13udm32366-p13ulv78840) Units=km Length=0.011629900000000002 bus1=p13udm32366.1.2 bus2=p13ulv78840.1.2 switch=n enabled=y phases=2 Linecode=1P_OH_AL_2/0_Rucina_2

New Line.l(r:p13udm32366-p13ulv78859) Units=km Length=0.030799600000000003 bus1=p13udm32366.1.2 bus2=p13ulv78859.1.2 switch=n enabled=y phases=2 Linecode=1P_OH_AL_4/0_Zuzara_2

New Line.l(r:p13udm32362-p13ulv16407) Units=km Length=0.011594400000000001 bus1=p13udm32362.1.2 bus2=p13ulv16407.1.2 switch=n enabled=y phases=2 Linecode=1P_OH_AL_2/0_Rucina_2

New Line.l(r:p13udm32362-p13udm32366) Units=km Length=0.0178079 bus1=p13udm32366.1.2 bus2=p13udm32362.1.2 switch=n enabled=y phases=2 Linecode=1P_OH_AL_2/0_Rucina_2

New Line.l(r:p13udm32366-p13udt7477lv) Units=km Length=0.0177976 bus1=p13udt7477lv.1.2 bus2=p13udm32366.1.2 switch=n enabled=y phases=2 Linecode=1P_OH_AL_2/0_Rucina_2

New Line.l(r:p13udt7478lv-p13ulv16410) Units=km Length=0.0111041 bus1=p13udt7478lv.1.2 bus2=p13ulv16410.1.2 switch=n enabled=y phases=2 Linecode=1P_OH_AL_2/0_Rucina_2

New Line.l(r:p13udt7478lv-p13ulv78787) Units=km Length=0.0493042 bus1=p13udt7478lv.1.2 bus2=p13ulv78787.1.2 switch=n enabled=y phases=2 Linecode=1P_OH_AL_4/0_Zuzara_2

New Line.l(r:p13udt7478lv-p13ulv78811) Units=km Length=0.0150008 bus1=p13udt7478lv.1.2 bus2=p13ulv78811.1.2 switch=n enabled=y phases=2 Linecode=1P_OH_AL_2/0_Rucina_2

New Line.l(r:p13udm32373-p13ulv16409) Units=km Length=0.0103419 bus1=p13udm32373.1.2 bus2=p13ulv16409.1.2 switch=n enabled=y phases=2 Linecode=1P_OH_AL_2/0_Rucina_2

New Line.l(r:p13udm32373-p13ulv78794) Units=km Length=0.042359 bus1=p13udm32373.1.2 bus2=p13ulv78794.1.2 switch=n enabled=y phases=2 Linecode=1P_OH_AL_4/0_Zuzara_2

New Line.l(r:p13udm32373-p13ulv78819) Units=km Length=0.0136635 bus1=p13udm32373.1.2 bus2=p13ulv78819.1.2 switch=n enabled=y phases=2 Linecode=1P_OH_AL_2/0_Rucina_2
