New Load.load_p13ulv3855_1 conn=wye bus1=p13ulv3855.1 kV=0.12 Vminpu=0.8 Vmaxpu=1.2 model=1 kW=5.454982521291287 kvar=1.3947139746694095 Phases=1 yearly=res_kw_2822_pu

New Load.load_p13ulv3855_2 conn=wye bus1=p13ulv3855.2 kV=0.12 Vminpu=0.8 Vmaxpu=1.2 model=1 kW=5.454982521291287 kvar=1.3947139746694095 Phases=1 yearly=res_kw_2822_pu

New Load.load_p13ulv3856_1 conn=wye bus1=p13ulv3856.1 kV=0.12 Vminpu=0.8 Vmaxpu=1.2 model=1 kW=4.402913026363639 kvar=0.26775034151900284 Phases=1 yearly=com_kw_17318_pu

New Load.load_p13ulv3856_2 conn=wye bus1=p13ulv3856.2 kV=0.12 Vminpu=0.8 Vmaxpu=1.2 model=1 kW=4.402913026363639 kvar=0.26775034151900284 Phases=1 yearly=com_kw_17318_pu

New Load.load_p13ulv3857_1 conn=wye bus1=p13ulv3857.1 kV=0.12 Vminpu=0.8 Vmaxpu=1.2 model=1 kW=4.237064396976419 kvar=0.25029256707639685 Phases=1 yearly=com_kw_1949_pu

New Load.load_p13ulv3857_2 conn=wye bus1=p13ulv3857.2 kV=0.12 Vminpu=0.8 Vmaxpu=1.2 model=1 kW=4.237064396976419 kvar=0.25029256707639685 Phases=1 yearly=com_kw_1949_pu

New Load.load_p13ulv3858_1 conn=wye bus1=p13ulv3857.1 kV=0.12 Vminpu=0.8 Vmaxpu=1.2 model=1 kW=4.282147356749706 kvar=1.098326139423759 Phases=1 yearly=res_kw_12468_pu

New Load.load_p13ulv3858_2 conn=wye bus1=p13ulv3857.2 kV=0.12 Vminpu=0.8 Vmaxpu=1.2 model=1 kW=4.282147356749706 kvar=1.098326139423759 Phases=1 yearly=res_kw_12468_pu

New Load.load_p13ulv3859_1 conn=wye bus1=p13ulv3859.1 kV=0.12 Vminpu=0.8 Vmaxpu=1.2 model=1 kW=7.078780453416107 kvar=1.8174348568036047 Phases=1 yearly=res_kw_3446_pu

New Load.load_p13ulv3859_2 conn=wye bus1=p13ulv3859.2 kV=0.12 Vminpu=0.8 Vmaxpu=1.2 model=1 kW=7.078780453416107 kvar=1.8174348568036047 Phases=1 yearly=res_kw_3446_pu

New Load.load_p13ulv3860_1 conn=wye bus1=p13ulv3860.1 kV=0.12 Vminpu=0.8 Vmaxpu=1.2 model=1 kW=11.199225111694867 kvar=0.4981559448476882 Phases=1 yearly=res_kw_11839_pu

New Load.load_p13ulv3860_2 conn=wye bus1=p13ulv3860.2 kV=0.12 Vminpu=0.8 Vmaxpu=1.2 model=1 kW=11.199225111694867 kvar=0.4981559448476882 Phases=1 yearly=res_kw_11839_pu

New Load.load_p13ulv3861_1 conn=wye bus1=p13ulv3861.1 kV=0.12 Vminpu=0.8 Vmaxpu=1.2 model=1 kW=5.61950712613045 kvar=0.5380510729366107 Phases=1 yearly=res_kw_14016_pu

New Load.load_p13ulv3861_2 conn=wye bus1=p13ulv3861.2 kV=0.12 Vminpu=0.8 Vmaxpu=1.2 model=1 kW=5.61950712613045 kvar=0.5380510729366107 Phases=1 yearly=res_kw_14016_pu

New Load.load_p13ulv3862_1 conn=wye bus1=p13ulv3862.1 kV=0.12 Vminpu=0.8 Vmaxpu=1.2 model=1 kW=3.4477550901029463 kvar=0.48537613816094066 Phases=1 yearly=res_kw_8004_pu

New Load.load_p13ulv3862_2 conn=wye bus1=p13ulv3862.2 kV=0.12 Vminpu=0.8 Vmaxpu=1.2 model=1 kW=3.4477550901029463 kvar=0.48537613816094066 Phases=1 yearly=res_kw_8004_pu

New Load.load_p13ulv3863_1 conn=wye bus1=p13ulv3863.1 kV=0.12 Vminpu=0.8 Vmaxpu=1.2 model=1 kW=2.6687584097416917 kvar=0.2644243787085743 Phases=1 yearly=res_kw_4011_pu

New Load.load_p13ulv3863_2 conn=wye bus1=p13ulv3863.2 kV=0.12 Vminpu=0.8 Vmaxpu=1.2 model=1 kW=2.6687584097416917 kvar=0.2644243787085743 Phases=1 yearly=res_kw_4011_pu

New Load.load_p13ulv3864_1 conn=wye bus1=p13ulv3863.1 kV=0.12 Vminpu=0.8 Vmaxpu=1.2 model=1 kW=1.8996795095038266 kvar=0.7128004517365247 Phases=1 yearly=res_kw_3977_pu

New Load.load_p13ulv3864_2 conn=wye bus1=p13ulv3863.2 kV=0.12 Vminpu=0.8 Vmaxpu=1.2 model=1 kW=1.8996795095038266 kvar=0.7128004517365247 Phases=1 yearly=res_kw_3977_pu

New Load.load_p13ulv3865 conn=wye bus1=p13ulv3865.1.2.3 kV=0.48 Vminpu=0.8 Vmaxpu=1.2 model=1 kW=31.212739288506913 kvar=12.281673801405278 Phases=3 yearly=res_kw_9111_pu

New Load.load_p13ulv3867_1 conn=wye bus1=p13ulv3867.1 kV=0.12 Vminpu=0.8 Vmaxpu=1.2 model=1 kW=2.721419811770519 kvar=1.3087226829300433 Phases=1 yearly=res_kw_4402_pu

New Load.load_p13ulv3867_2 conn=wye bus1=p13ulv3867.2 kV=0.12 Vminpu=0.8 Vmaxpu=1.2 model=1 kW=2.721419811770519 kvar=1.3087226829300433 Phases=1 yearly=res_kw_4402_pu

New Load.load_p13ulv3868_1 conn=wye bus1=p13ulv3868.1 kV=0.12 Vminpu=0.8 Vmaxpu=1.2 model=1 kW=7.636775182325674 kvar=0.19439068500448672 Phases=1 yearly=res_kw_1430_pu

New Load.load_p13ulv3868_2 conn=wye bus1=p13ulv3868.2 kV=0.12 Vminpu=0.8 Vmaxpu=1.2 model=1 kW=7.636775182325674 kvar=0.19439068500448672 Phases=1 yearly=res_kw_1430_pu

New Load.load_p13ulv3869_1 conn=wye bus1=p13ulv3869.1 kV=0.12 Vminpu=0.8 Vmaxpu=1.2 model=1 kW=5.874756128327537 kvar=1.3966420189571396 Phases=1 yearly=res_kw_5231_pu

New Load.load_p13ulv3869_2 conn=wye bus1=p13ulv3869.2 kV=0.12 Vminpu=0.8 Vmaxpu=1.2 model=1 kW=5.874756128327537 kvar=1.3966420189571396 Phases=1 yearly=res_kw_5231_pu

New Load.load_p13ulv3872_1 conn=wye bus1=p13ulv3872.1 kV=0.12 Vminpu=0.8 Vmaxpu=1.2 model=1 kW=9.14404996525599 kvar=0.8035022294041726 Phases=1 yearly=res_kw_13723_pu

New Load.load_p13ulv3872_2 conn=wye bus1=p13ulv3872.2 kV=0.12 Vminpu=0.8 Vmaxpu=1.2 model=1 kW=9.14404996525599 kvar=0.8035022294041726 Phases=1 yearly=res_kw_13723_pu

New Load.load_p13ulv3873_1 conn=wye bus1=p13ulv3873.1 kV=0.12 Vminpu=0.8 Vmaxpu=1.2 model=1 kW=10.17853136062725 kvar=3.161674052088266 Phases=1 yearly=res_kw_13063_pu

New Load.load_p13ulv3873_2 conn=wye bus1=p13ulv3873.2 kV=0.12 Vminpu=0.8 Vmaxpu=1.2 model=1 kW=10.17853136062725 kvar=3.161674052088266 Phases=1 yearly=res_kw_13063_pu

New Load.load_p13ulv15987_1 conn=wye bus1=p13ulv15987.1 kV=0.12 Vminpu=0.8 Vmaxpu=1.2 model=1 kW=3.8249517279712286 kvar=0.9876552030064008 Phases=1 yearly=res_kw_3019_pu

New Load.load_p13ulv15987_2 conn=wye bus1=p13ulv15987.2 kV=0.12 Vminpu=0.8 Vmaxpu=1.2 model=1 kW=3.8249517279712286 kvar=0.9876552030064008 Phases=1 yearly=res_kw_3019_pu

New Load.load_p13ulv15988_1 conn=wye bus1=p13ulv15988.1 kV=0.12 Vminpu=0.8 Vmaxpu=1.2 model=1 kW=17.755090323015683 kvar=3.5341638362951597 Phases=1 yearly=res_kw_803_pu

New Load.load_p13ulv15988_2 conn=wye bus1=p13ulv15988.2 kV=0.12 Vminpu=0.8 Vmaxpu=1.2 model=1 kW=17.755090323015683 kvar=3.5341638362951597 Phases=1 yearly=res_kw_803_pu

New Load.load_p13ulv15989_1 conn=wye bus1=p13ulv15989.1 kV=0.12 Vminpu=0.8 Vmaxpu=1.2 model=1 kW=5.769897398955409 kvar=1.2657016802903096 Phases=1 yearly=res_kw_1341_pu

New Load.load_p13ulv15989_2 conn=wye bus1=p13ulv15989.2 kV=0.12 Vminpu=0.8 Vmaxpu=1.2 model=1 kW=5.769897398955409 kvar=1.2657016802903096 Phases=1 yearly=res_kw_1341_pu

New Load.load_p13ulv15990 conn=wye bus1=p13ulv15990.1.2.3 kV=0.48 Vminpu=0.8 Vmaxpu=1.2 model=1 kW=30.95235791459412 kvar=3.876164309457127 Phases=3 yearly=com_kw_31685_pu

New Load.load_p13ulv16373_1 conn=wye bus1=p13ulv16373.1 kV=0.12 Vminpu=0.8 Vmaxpu=1.2 model=1 kW=3.699799325256953 kvar=0.8566141395133354 Phases=1 yearly=res_kw_15041_pu

New Load.load_p13ulv16373_2 conn=wye bus1=p13ulv16373.2 kV=0.12 Vminpu=0.8 Vmaxpu=1.2 model=1 kW=3.699799325256953 kvar=0.8566141395133354 Phases=1 yearly=res_kw_15041_pu

New Load.load_p13ulv16375_1 conn=wye bus1=p13ulv16375.1 kV=0.12 Vminpu=0.8 Vmaxpu=1.2 model=1 kW=17.523710035619327 kvar=3.711714940836808 Phases=1 yearly=res_kw_6657_pu

New Load.load_p13ulv16375_2 conn=wye bus1=p13ulv16375.2 kV=0.12 Vminpu=0.8 Vmaxpu=1.2 model=1 kW=17.523710035619327 kvar=3.711714940836808 Phases=1 yearly=res_kw_6657_pu

New Load.load_p13ulv16376_1 conn=wye bus1=p13ulv16376.1 kV=0.12 Vminpu=0.8 Vmaxpu=1.2 model=1 kW=9.209949706733363 kvar=2.5845887489994652 Phases=1 yearly=res_kw_10561_pu

New Load.load_p13ulv16376_2 conn=wye bus1=p13ulv16376.2 kV=0.12 Vminpu=0.8 Vmaxpu=1.2 model=1 kW=9.209949706733363 kvar=2.5845887489994652 Phases=1 yearly=res_kw_10561_pu

New Load.load_p13ulv16377_1 conn=wye bus1=p13ulv16377.1 kV=0.12 Vminpu=0.8 Vmaxpu=1.2 model=1 kW=8.858265718690781 kvar=3.4276482059441027 Phases=1 yearly=res_kw_14863_pu

New Load.load_p13ulv16377_2 conn=wye bus1=p13ulv16377.2 kV=0.12 Vminpu=0.8 Vmaxpu=1.2 model=1 kW=8.858265718690781 kvar=3.4276482059441027 Phases=1 yearly=res_kw_14863_pu

New Load.load_p13ulv16378_1 conn=wye bus1=p13ulv16378.1 kV=0.12 Vminpu=0.8 Vmaxpu=1.2 model=1 kW=5.939462559520736 kvar=2.4233385465068458 Phases=1 yearly=res_kw_5484_pu

New Load.load_p13ulv16378_2 conn=wye bus1=p13ulv16378.2 kV=0.12 Vminpu=0.8 Vmaxpu=1.2 model=1 kW=5.939462559520736 kvar=2.4233385465068458 Phases=1 yearly=res_kw_5484_pu

New Load.load_p13ulv16379_1 conn=wye bus1=p13ulv16379.1 kV=0.12 Vminpu=0.8 Vmaxpu=1.2 model=1 kW=5.166878214971304 kvar=1.1268665817230827 Phases=1 yearly=res_kw_2348_pu

New Load.load_p13ulv16379_2 conn=wye bus1=p13ulv16379.2 kV=0.12 Vminpu=0.8 Vmaxpu=1.2 model=1 kW=5.166878214971304 kvar=1.1268665817230827 Phases=1 yearly=res_kw_2348_pu

New Load.load_p13ulv16380_1 conn=wye bus1=p13ulv16380.1 kV=0.12 Vminpu=0.8 Vmaxpu=1.2 model=1 kW=3.5127978636027604 kvar=0.9794275484237299 Phases=1 yearly=res_kw_12216_pu

New Load.load_p13ulv16380_2 conn=wye bus1=p13ulv16380.2 kV=0.12 Vminpu=0.8 Vmaxpu=1.2 model=1 kW=3.5127978636027604 kvar=0.9794275484237299 Phases=1 yearly=res_kw_12216_pu

New Load.load_p13ulv16381_1 conn=wye bus1=p13ulv16381.1 kV=0.12 Vminpu=0.8 Vmaxpu=1.2 model=1 kW=1.162541970124943 kvar=0.40463651207256024 Phases=1 yearly=res_kw_6769_pu

New Load.load_p13ulv16381_2 conn=wye bus1=p13ulv16381.2 kV=0.12 Vminpu=0.8 Vmaxpu=1.2 model=1 kW=1.162541970124943 kvar=0.40463651207256024 Phases=1 yearly=res_kw_6769_pu

New Load.load_p13ulv16382_1 conn=wye bus1=p13ulv16382.1 kV=0.12 Vminpu=0.8 Vmaxpu=1.2 model=1 kW=5.594207609666512 kvar=0.29618755483083115 Phases=1 yearly=res_kw_13829_pu

New Load.load_p13ulv16382_2 conn=wye bus1=p13ulv16382.2 kV=0.12 Vminpu=0.8 Vmaxpu=1.2 model=1 kW=5.594207609666512 kvar=0.29618755483083115 Phases=1 yearly=res_kw_13829_pu

New Load.load_p13ulv16383_1 conn=wye bus1=p13ulv16383.1 kV=0.12 Vminpu=0.8 Vmaxpu=1.2 model=1 kW=1.8179671094194252 kvar=0.578895970655964 Phases=1 yearly=res_kw_5823_pu

New Load.load_p13ulv16383_2 conn=wye bus1=p13ulv16383.2 kV=0.12 Vminpu=0.8 Vmaxpu=1.2 model=1 kW=1.8179671094194252 kvar=0.578895970655964 Phases=1 yearly=res_kw_5823_pu

New Load.load_p13ulv16384_1 conn=wye bus1=p13ulv16384.1 kV=0.12 Vminpu=0.8 Vmaxpu=1.2 model=1 kW=4.050872862580548 kvar=1.6460928484694917 Phases=1 yearly=res_kw_9781_pu

New Load.load_p13ulv16384_2 conn=wye bus1=p13ulv16384.2 kV=0.12 Vminpu=0.8 Vmaxpu=1.2 model=1 kW=4.050872862580548 kvar=1.6460928484694917 Phases=1 yearly=res_kw_9781_pu

New Load.load_p13ulv16385_1 conn=wye bus1=p13ulv16385.1 kV=0.12 Vminpu=0.8 Vmaxpu=1.2 model=1 kW=21.372056918712534 kvar=4.614852919413448 Phases=1 yearly=res_kw_1149_pu

New Load.load_p13ulv16385_2 conn=wye bus1=p13ulv16385.2 kV=0.12 Vminpu=0.8 Vmaxpu=1.2 model=1 kW=21.372056918712534 kvar=4.614852919413448 Phases=1 yearly=res_kw_1149_pu

New Load.load_p13ulv16386_1 conn=wye bus1=p13ulv16386.1 kV=0.12 Vminpu=0.8 Vmaxpu=1.2 model=1 kW=1.662175563154952 kvar=0.943336650616341 Phases=1 yearly=res_kw_899_pu

New Load.load_p13ulv16386_2 conn=wye bus1=p13ulv16386.2 kV=0.12 Vminpu=0.8 Vmaxpu=1.2 model=1 kW=1.662175563154952 kvar=0.943336650616341 Phases=1 yearly=res_kw_899_pu

New Load.load_p13ulv16387_1 conn=wye bus1=p13ulv16387.1 kV=0.12 Vminpu=0.8 Vmaxpu=1.2 model=1 kW=3.4177946470984604 kvar=0.17824080240919435 Phases=1 yearly=res_kw_3092_pu

New Load.load_p13ulv16387_2 conn=wye bus1=p13ulv16387.2 kV=0.12 Vminpu=0.8 Vmaxpu=1.2 model=1 kW=3.4177946470984604 kvar=0.17824080240919435 Phases=1 yearly=res_kw_3092_pu

New Load.load_p13ulv16388_1 conn=wye bus1=p13ulv16388.1 kV=0.12 Vminpu=0.8 Vmaxpu=1.2 model=1 kW=3.483508427042138 kvar=0.5551880655448971 Phases=1 yearly=res_kw_13123_pu

New Load.load_p13ulv16388_2 conn=wye bus1=p13ulv16388.2 kV=0.12 Vminpu=0.8 Vmaxpu=1.2 model=1 kW=3.483508427042138 kvar=0.5551880655448971 Phases=1 yearly=res_kw_13123_pu

New Load.load_p13ulv16389_1 conn=wye bus1=p13ulv16389.1 kV=0.12 Vminpu=0.8 Vmaxpu=1.2 model=1 kW=1.5162070916010792 kvar=0.8361006833064711 Phases=1 yearly=res_kw_13436_pu

New Load.load_p13ulv16389_2 conn=wye bus1=p13ulv16389.2 kV=0.12 Vminpu=0.8 Vmaxpu=1.2 model=1 kW=1.5162070916010792 kvar=0.8361006833064711 Phases=1 yearly=res_kw_13436_pu

New Load.load_p13ulv16390_1 conn=wye bus1=p13ulv16390.1 kV=0.12 Vminpu=0.8 Vmaxpu=1.2 model=1 kW=2.1383669294427556 kvar=0.9111586935574751 Phases=1 yearly=res_kw_5301_pu

New Load.load_p13ulv16390_2 conn=wye bus1=p13ulv16390.2 kV=0.12 Vminpu=0.8 Vmaxpu=1.2 model=1 kW=2.1383669294427556 kvar=0.9111586935574751 Phases=1 yearly=res_kw_5301_pu

New Load.load_p13ulv16391_1 conn=wye bus1=p13ulv16391.1 kV=0.12 Vminpu=0.8 Vmaxpu=1.2 model=1 kW=2.691481166059273 kvar=0.7487164293376141 Phases=1 yearly=res_kw_10756_pu

New Load.load_p13ulv16391_2 conn=wye bus1=p13ulv16391.2 kV=0.12 Vminpu=0.8 Vmaxpu=1.2 model=1 kW=2.691481166059273 kvar=0.7487164293376141 Phases=1 yearly=res_kw_10756_pu

New Load.load_p13ulv16392_1 conn=wye bus1=p13ulv16392.1 kV=0.12 Vminpu=0.8 Vmaxpu=1.2 model=1 kW=4.0582443304612115 kvar=1.5314950530751326 Phases=1 yearly=res_kw_12995_pu

New Load.load_p13ulv16392_2 conn=wye bus1=p13ulv16392.2 kV=0.12 Vminpu=0.8 Vmaxpu=1.2 model=1 kW=4.0582443304612115 kvar=1.5314950530751326 Phases=1 yearly=res_kw_12995_pu

New Load.load_p13ulv16393_1 conn=wye bus1=p13ulv16393.1 kV=0.12 Vminpu=0.8 Vmaxpu=1.2 model=1 kW=3.4477550901029463 kvar=0.48537613816094066 Phases=1 yearly=res_kw_8004_pu

New Load.load_p13ulv16393_2 conn=wye bus1=p13ulv16393.2 kV=0.12 Vminpu=0.8 Vmaxpu=1.2 model=1 kW=3.4477550901029463 kvar=0.48537613816094066 Phases=1 yearly=res_kw_8004_pu

New Load.load_p13ulv16394 conn=wye bus1=p13ulv16394.1.2.3 kV=0.48 Vminpu=0.8 Vmaxpu=1.2 model=1 kW=51.62892680511138 kvar=4.527409099903823 Phases=3 yearly=com_kw_16179_pu

New Load.load_p13ulv16395_1 conn=wye bus1=p13ulv16395.1 kV=0.12 Vminpu=0.8 Vmaxpu=1.2 model=1 kW=1.6914947005599719 kvar=0.8203767296500374 Phases=1 yearly=res_kw_6690_pu

New Load.load_p13ulv16395_2 conn=wye bus1=p13ulv16395.2 kV=0.12 Vminpu=0.8 Vmaxpu=1.2 model=1 kW=1.6914947005599719 kvar=0.8203767296500374 Phases=1 yearly=res_kw_6690_pu

New Load.load_p13ulv16396_1 conn=wye bus1=p13ulv16396.1 kV=0.12 Vminpu=0.8 Vmaxpu=1.2 model=1 kW=2.603899954655684 kvar=0.9062733955247376 Phases=1 yearly=res_kw_8862_pu

New Load.load_p13ulv16396_2 conn=wye bus1=p13ulv16396.2 kV=0.12 Vminpu=0.8 Vmaxpu=1.2 model=1 kW=2.603899954655684 kvar=0.9062733955247376 Phases=1 yearly=res_kw_8862_pu

New Load.load_p13ulv16397_1 conn=wye bus1=p13ulv16397.1 kV=0.12 Vminpu=0.8 Vmaxpu=1.2 model=1 kW=5.961119250722173 kvar=1.0498093319540622 Phases=1 yearly=res_kw_14374_pu

New Load.load_p13ulv16397_2 conn=wye bus1=p13ulv16397.2 kV=0.12 Vminpu=0.8 Vmaxpu=1.2 model=1 kW=5.961119250722173 kvar=1.0498093319540622 Phases=1 yearly=res_kw_14374_pu

New Load.load_p13ulv16398_1 conn=wye bus1=p13ulv16398.1 kV=0.12 Vminpu=0.8 Vmaxpu=1.2 model=1 kW=1.7555390750033915 kvar=0.8803053077817797 Phases=1 yearly=res_kw_13070_pu

New Load.load_p13ulv16398_2 conn=wye bus1=p13ulv16398.2 kV=0.12 Vminpu=0.8 Vmaxpu=1.2 model=1 kW=1.7555390750033915 kvar=0.8803053077817797 Phases=1 yearly=res_kw_13070_pu

New Load.load_p13ulv16399_1 conn=wye bus1=p13ulv16399.1 kV=0.12 Vminpu=0.8 Vmaxpu=1.2 model=1 kW=2.14871916727783 kvar=0.9610019420437865 Phases=1 yearly=res_kw_9745_pu

New Load.load_p13ulv16399_2 conn=wye bus1=p13ulv16399.2 kV=0.12 Vminpu=0.8 Vmaxpu=1.2 model=1 kW=2.14871916727783 kvar=0.9610019420437865 Phases=1 yearly=res_kw_9745_pu

New Load.load_p13ulv16407_1 conn=wye bus1=p13ulv16407.1 kV=0.12 Vminpu=0.8 Vmaxpu=1.2 model=1 kW=9.010195922101225 kvar=1.5579368925844386 Phases=1 yearly=res_kw_14826_pu

New Load.load_p13ulv16407_2 conn=wye bus1=p13ulv16407.2 kV=0.12 Vminpu=0.8 Vmaxpu=1.2 model=1 kW=9.010195922101225 kvar=1.5579368925844386 Phases=1 yearly=res_kw_14826_pu

New Load.load_p13ulv16408_1 conn=wye bus1=p13ulv16408.1 kV=0.12 Vminpu=0.8 Vmaxpu=1.2 model=1 kW=4.298732967846568 kvar=1.4010470651986036 Phases=1 yearly=res_kw_8466_pu

New Load.load_p13ulv16408_2 conn=wye bus1=p13ulv16408.2 kV=0.12 Vminpu=0.8 Vmaxpu=1.2 model=1 kW=4.298732967846568 kvar=1.4010470651986036 Phases=1 yearly=res_kw_8466_pu

New Load.load_p13ulv16409_1 conn=wye bus1=p13ulv16409.1 kV=0.12 Vminpu=0.8 Vmaxpu=1.2 model=1 kW=4.412476981046882 kvar=1.3640858573670478 Phases=1 yearly=res_kw_12186_pu

New Load.load_p13ulv16409_2 conn=wye bus1=p13ulv16409.2 kV=0.12 Vminpu=0.8 Vmaxpu=1.2 model=1 kW=4.412476981046882 kvar=1.3640858573670478 Phases=1 yearly=res_kw_12186_pu

New Load.load_p13ulv16410_1 conn=wye bus1=p13ulv16410.1 kV=0.12 Vminpu=0.8 Vmaxpu=1.2 model=1 kW=1.8179671094194252 kvar=0.578895970655964 Phases=1 yearly=res_kw_5823_pu

New Load.load_p13ulv16410_2 conn=wye bus1=p13ulv16410.2 kV=0.12 Vminpu=0.8 Vmaxpu=1.2 model=1 kW=1.8179671094194252 kvar=0.578895970655964 Phases=1 yearly=res_kw_5823_pu

New Load.load_p13ulv16411_1 conn=wye bus1=p13ulv16411.1 kV=0.12 Vminpu=0.8 Vmaxpu=1.2 model=1 kW=11.647829059875106 kvar=0.7882844102279488 Phases=1 yearly=res_kw_1101_pu

New Load.load_p13ulv16411_2 conn=wye bus1=p13ulv16411.2 kV=0.12 Vminpu=0.8 Vmaxpu=1.2 model=1 kW=11.647829059875106 kvar=0.7882844102279488 Phases=1 yearly=res_kw_1101_pu

New Load.load_p13ulv16412_1 conn=wye bus1=p13ulv16412.1 kV=0.12 Vminpu=0.8 Vmaxpu=1.2 model=1 kW=6.905727092479465 kvar=1.6733628858409957 Phases=1 yearly=res_kw_2812_pu

New Load.load_p13ulv16412_2 conn=wye bus1=p13ulv16412.2 kV=0.12 Vminpu=0.8 Vmaxpu=1.2 model=1 kW=6.905727092479465 kvar=1.6733628858409957 Phases=1 yearly=res_kw_2812_pu

New Load.load_p13ulv16413_1 conn=wye bus1=p13ulv16413.1 kV=0.12 Vminpu=0.8 Vmaxpu=1.2 model=1 kW=6.056022078620603 kvar=0.7018960263175233 Phases=1 yearly=res_kw_6937_pu

New Load.load_p13ulv16413_2 conn=wye bus1=p13ulv16413.2 kV=0.12 Vminpu=0.8 Vmaxpu=1.2 model=1 kW=6.056022078620603 kvar=0.7018960263175233 Phases=1 yearly=res_kw_6937_pu

New Load.load_p13ulv16420_1 conn=wye bus1=p13ulv16420.1 kV=0.12 Vminpu=0.8 Vmaxpu=1.2 model=1 kW=13.57463654679235 kvar=2.360845743140966 Phases=1 yearly=res_kw_6614_pu

New Load.load_p13ulv16420_2 conn=wye bus1=p13ulv16420.2 kV=0.12 Vminpu=0.8 Vmaxpu=1.2 model=1 kW=13.57463654679235 kvar=2.360845743140966 Phases=1 yearly=res_kw_6614_pu

New Load.load_p13ulv16421_1 conn=wye bus1=p13ulv16421.1 kV=0.12 Vminpu=0.8 Vmaxpu=1.2 model=1 kW=22.12280202516119 kvar=4.492669783950823 Phases=1 yearly=res_kw_8421_pu

New Load.load_p13ulv16421_2 conn=wye bus1=p13ulv16421.2 kV=0.12 Vminpu=0.8 Vmaxpu=1.2 model=1 kW=22.12280202516119 kvar=4.492669783950823 Phases=1 yearly=res_kw_8421_pu

New Load.load_p13ulv16422_1 conn=wye bus1=p13ulv16422.1 kV=0.12 Vminpu=0.8 Vmaxpu=1.2 model=1 kW=2.5975572325002942 kvar=0.41729917554764967 Phases=1 yearly=res_kw_2553_pu

New Load.load_p13ulv16422_2 conn=wye bus1=p13ulv16422.2 kV=0.12 Vminpu=0.8 Vmaxpu=1.2 model=1 kW=2.5975572325002942 kvar=0.41729917554764967 Phases=1 yearly=res_kw_2553_pu

New Load.load_p13ulv16423_1 conn=wye bus1=p13ulv16423.1 kV=0.12 Vminpu=0.8 Vmaxpu=1.2 model=1 kW=2.72982098086079 kvar=1.252242080088123 Phases=1 yearly=res_kw_8543_pu

New Load.load_p13ulv16423_2 conn=wye bus1=p13ulv16423.2 kV=0.12 Vminpu=0.8 Vmaxpu=1.2 model=1 kW=2.72982098086079 kvar=1.252242080088123 Phases=1 yearly=res_kw_8543_pu

New Load.load_p13ulv16430_1 conn=wye bus1=p13ulv16430.1 kV=0.12 Vminpu=0.8 Vmaxpu=1.2 model=1 kW=10.282982907991595 kvar=2.381125299760927 Phases=1 yearly=res_kw_7023_pu

New Load.load_p13ulv16430_2 conn=wye bus1=p13ulv16430.2 kV=0.12 Vminpu=0.8 Vmaxpu=1.2 model=1 kW=10.282982907991595 kvar=2.381125299760927 Phases=1 yearly=res_kw_7023_pu

New Load.load_p13ulv16431_1 conn=wye bus1=p13ulv16431.1 kV=0.12 Vminpu=0.8 Vmaxpu=1.2 model=1 kW=6.443939551742727 kvar=1.9103797929484774 Phases=1 yearly=res_kw_4541_pu

New Load.load_p13ulv16431_2 conn=wye bus1=p13ulv16431.2 kV=0.12 Vminpu=0.8 Vmaxpu=1.2 model=1 kW=6.443939551742727 kvar=1.9103797929484774 Phases=1 yearly=res_kw_4541_pu

New Load.load_p13ulv16432_1 conn=wye bus1=p13ulv16432.1 kV=0.12 Vminpu=0.8 Vmaxpu=1.2 model=1 kW=2.965698991960231 kvar=0.9240776131155559 Phases=1 yearly=res_kw_10202_pu

New Load.load_p13ulv16432_2 conn=wye bus1=p13ulv16432.2 kV=0.12 Vminpu=0.8 Vmaxpu=1.2 model=1 kW=2.965698991960231 kvar=0.9240776131155559 Phases=1 yearly=res_kw_10202_pu

New Load.load_p13ulv16433_1 conn=wye bus1=p13ulv16433.1 kV=0.12 Vminpu=0.8 Vmaxpu=1.2 model=1 kW=1.7867427853897686 kvar=0.8458875050289713 Phases=1 yearly=res_kw_11106_pu

New Load.load_p13ulv16433_2 conn=wye bus1=p13ulv16433.2 kV=0.12 Vminpu=0.8 Vmaxpu=1.2 model=1 kW=1.7867427853897686 kvar=0.8458875050289713 Phases=1 yearly=res_kw_11106_pu

New Load.load_p13ulv16434_1 conn=wye bus1=p13ulv16434.1 kV=0.12 Vminpu=0.8 Vmaxpu=1.2 model=1 kW=2.227237347131017 kvar=0.19709879277580364 Phases=1 yearly=res_kw_13866_pu

New Load.load_p13ulv16434_2 conn=wye bus1=p13ulv16434.2 kV=0.12 Vminpu=0.8 Vmaxpu=1.2 model=1 kW=2.227237347131017 kvar=0.19709879277580364 Phases=1 yearly=res_kw_13866_pu

New Load.load_p13ulv16435_1 conn=wye bus1=p13ulv16435.1 kV=0.12 Vminpu=0.8 Vmaxpu=1.2 model=1 kW=3.985032655077851 kvar=1.1048576365459057 Phases=1 yearly=res_kw_9804_pu

New Load.load_p13ulv16435_2 conn=wye bus1=p13ulv16435.2 kV=0.12 Vminpu=0.8 Vmaxpu=1.2 model=1 kW=3.985032655077851 kvar=1.1048576365459057 Phases=1 yearly=res_kw_9804_pu

New Load.load_p13ulv16436_1 conn=wye bus1=p13ulv16436.1 kV=0.12 Vminpu=0.8 Vmaxpu=1.2 model=1 kW=2.7096273035432676 kvar=0.9427200469116054 Phases=1 yearly=res_kw_804_pu

New Load.load_p13ulv16436_2 conn=wye bus1=p13ulv16436.2 kV=0.12 Vminpu=0.8 Vmaxpu=1.2 model=1 kW=2.7096273035432676 kvar=0.9427200469116054 Phases=1 yearly=res_kw_804_pu

New Load.load_p13ulv16437_1 conn=wye bus1=p13ulv16437.1 kV=0.12 Vminpu=0.8 Vmaxpu=1.2 model=1 kW=4.050872862580548 kvar=1.6460928484694917 Phases=1 yearly=res_kw_9781_pu

New Load.load_p13ulv16437_2 conn=wye bus1=p13ulv16437.2 kV=0.12 Vminpu=0.8 Vmaxpu=1.2 model=1 kW=4.050872862580548 kvar=1.6460928484694917 Phases=1 yearly=res_kw_9781_pu

New Load.load_p13ulv16438_1 conn=wye bus1=p13ulv16438.1 kV=0.12 Vminpu=0.8 Vmaxpu=1.2 model=1 kW=18.452091646533674 kvar=4.5115050445148706 Phases=1 yearly=res_kw_438_pu

New Load.load_p13ulv16438_2 conn=wye bus1=p13ulv16438.2 kV=0.12 Vminpu=0.8 Vmaxpu=1.2 model=1 kW=18.452091646533674 kvar=4.5115050445148706 Phases=1 yearly=res_kw_438_pu

New Load.load_p13ulv16439_1 conn=wye bus1=p13ulv16439.1 kV=0.12 Vminpu=0.8 Vmaxpu=1.2 model=1 kW=6.016101116752196 kvar=0.4002351854880724 Phases=1 yearly=res_kw_9190_pu

New Load.load_p13ulv16439_2 conn=wye bus1=p13ulv16439.2 kV=0.12 Vminpu=0.8 Vmaxpu=1.2 model=1 kW=6.016101116752196 kvar=0.4002351854880724 Phases=1 yearly=res_kw_9190_pu

New Load.load_p13ulv16440_1 conn=wye bus1=p13ulv16440.1 kV=0.12 Vminpu=0.8 Vmaxpu=1.2 model=1 kW=3.9956570871765704 kvar=1.2597733487954317 Phases=1 yearly=res_kw_7665_pu

New Load.load_p13ulv16440_2 conn=wye bus1=p13ulv16440.2 kV=0.12 Vminpu=0.8 Vmaxpu=1.2 model=1 kW=3.9956570871765704 kvar=1.2597733487954317 Phases=1 yearly=res_kw_7665_pu

New Load.load_p13ulv16441 conn=wye bus1=p13ulv16441.1.2.3 kV=0.48 Vminpu=0.8 Vmaxpu=1.2 model=1 kW=29.262771037353613 kvar=9.914373602235145 Phases=3 yearly=res_kw_157_pu

New Load.load_p13ulv16442_1 conn=wye bus1=p13ulv16442.1 kV=0.12 Vminpu=0.8 Vmaxpu=1.2 model=1 kW=9.498100393410011 kvar=3.432706989967659 Phases=1 yearly=res_kw_6028_pu

New Load.load_p13ulv16442_2 conn=wye bus1=p13ulv16442.2 kV=0.12 Vminpu=0.8 Vmaxpu=1.2 model=1 kW=9.498100393410011 kvar=3.432706989967659 Phases=1 yearly=res_kw_6028_pu

New Load.load_p13ulv16443_1 conn=wye bus1=p13ulv16442.1 kV=0.12 Vminpu=0.8 Vmaxpu=1.2 model=1 kW=1.8969078568605648 kvar=0.8618823795035473 Phases=1 yearly=res_kw_3539_pu

New Load.load_p13ulv16443_2 conn=wye bus1=p13ulv16442.2 kV=0.12 Vminpu=0.8 Vmaxpu=1.2 model=1 kW=1.8969078568605648 kvar=0.8618823795035473 Phases=1 yearly=res_kw_3539_pu

New Load.load_p13ulv16444_1 conn=wye bus1=p13ulv16444.1 kV=0.12 Vminpu=0.8 Vmaxpu=1.2 model=1 kW=9.933746507429499 kvar=0.957944361743073 Phases=1 yearly=res_kw_8198_pu

New Load.load_p13ulv16444_2 conn=wye bus1=p13ulv16444.2 kV=0.12 Vminpu=0.8 Vmaxpu=1.2 model=1 kW=9.933746507429499 kvar=0.957944361743073 Phases=1 yearly=res_kw_8198_pu

New Load.load_p13ulv16445_1 conn=wye bus1=p13ulv16445.1 kV=0.12 Vminpu=0.8 Vmaxpu=1.2 model=1 kW=19.36940891418324 kvar=7.889537753674508 Phases=1 yearly=res_kw_10361_pu

New Load.load_p13ulv16445_2 conn=wye bus1=p13ulv16445.2 kV=0.12 Vminpu=0.8 Vmaxpu=1.2 model=1 kW=19.36940891418324 kvar=7.889537753674508 Phases=1 yearly=res_kw_10361_pu

New Load.load_p13ulv16446_1 conn=wye bus1=p13ulv16446.1 kV=0.12 Vminpu=0.8 Vmaxpu=1.2 model=1 kW=19.708657636500092 kvar=4.52211031145312 Phases=1 yearly=res_kw_303_pu

New Load.load_p13ulv16446_2 conn=wye bus1=p13ulv16446.2 kV=0.12 Vminpu=0.8 Vmaxpu=1.2 model=1 kW=19.708657636500092 kvar=4.52211031145312 Phases=1 yearly=res_kw_303_pu

New Load.load_p13ulv16447_1 conn=wye bus1=p13ulv16447.1 kV=0.12 Vminpu=0.8 Vmaxpu=1.2 model=1 kW=27.408366830356695 kvar=7.1653088770536755 Phases=1 yearly=res_kw_14783_pu

New Load.load_p13ulv16447_2 conn=wye bus1=p13ulv16447.2 kV=0.12 Vminpu=0.8 Vmaxpu=1.2 model=1 kW=27.408366830356695 kvar=7.1653088770536755 Phases=1 yearly=res_kw_14783_pu

New Load.load_p13ulv16448_1 conn=wye bus1=p13ulv16448.1 kV=0.12 Vminpu=0.8 Vmaxpu=1.2 model=1 kW=3.1210420493769755 kvar=0.7776598177702176 Phases=1 yearly=res_kw_14970_pu

New Load.load_p13ulv16448_2 conn=wye bus1=p13ulv16448.2 kV=0.12 Vminpu=0.8 Vmaxpu=1.2 model=1 kW=3.1210420493769755 kvar=0.7776598177702176 Phases=1 yearly=res_kw_14970_pu

New Load.load_p13ulv16449_1 conn=wye bus1=p13ulv16449.1 kV=0.12 Vminpu=0.8 Vmaxpu=1.2 model=1 kW=19.51078206585824 kvar=1.8120356889124971 Phases=1 yearly=res_kw_1014_pu

New Load.load_p13ulv16449_2 conn=wye bus1=p13ulv16449.2 kV=0.12 Vminpu=0.8 Vmaxpu=1.2 model=1 kW=19.51078206585824 kvar=1.8120356889124971 Phases=1 yearly=res_kw_1014_pu

New Load.load_p13ulv16450_1 conn=wye bus1=p13ulv16450.1 kV=0.12 Vminpu=0.8 Vmaxpu=1.2 model=1 kW=13.29627208525968 kvar=2.8173457972088114 Phases=1 yearly=res_kw_6789_pu

New Load.load_p13ulv16450_2 conn=wye bus1=p13ulv16450.2 kV=0.12 Vminpu=0.8 Vmaxpu=1.2 model=1 kW=13.29627208525968 kvar=2.8173457972088114 Phases=1 yearly=res_kw_6789_pu

New Load.load_p13ulv16451_1 conn=wye bus1=p13ulv16451.1 kV=0.12 Vminpu=0.8 Vmaxpu=1.2 model=1 kW=2.5975572325002942 kvar=0.41729917554764967 Phases=1 yearly=res_kw_2553_pu

New Load.load_p13ulv16451_2 conn=wye bus1=p13ulv16451.2 kV=0.12 Vminpu=0.8 Vmaxpu=1.2 model=1 kW=2.5975572325002942 kvar=0.41729917554764967 Phases=1 yearly=res_kw_2553_pu

New Load.load_p13ulv16452_1 conn=wye bus1=p13ulv16452.1 kV=0.12 Vminpu=0.8 Vmaxpu=1.2 model=1 kW=4.055766634676983 kvar=1.199977165248086 Phases=1 yearly=com_kw_19714_pu

New Load.load_p13ulv16452_2 conn=wye bus1=p13ulv16452.2 kV=0.12 Vminpu=0.8 Vmaxpu=1.2 model=1 kW=4.055766634676983 kvar=1.199977165248086 Phases=1 yearly=com_kw_19714_pu

New Load.load_p13ulv16453_1 conn=wye bus1=p13ulv16453.1 kV=0.12 Vminpu=0.8 Vmaxpu=1.2 model=1 kW=5.250030247715377 kvar=1.387170044221421 Phases=1 yearly=res_kw_6378_pu

New Load.load_p13ulv16453_2 conn=wye bus1=p13ulv16453.2 kV=0.12 Vminpu=0.8 Vmaxpu=1.2 model=1 kW=5.250030247715377 kvar=1.387170044221421 Phases=1 yearly=res_kw_6378_pu

New Load.load_p13ulv16454_1 conn=wye bus1=p13ulv16454.1 kV=0.12 Vminpu=0.8 Vmaxpu=1.2 model=1 kW=4.262954543726521 kvar=0.5048917887531463 Phases=1 yearly=res_kw_4165_pu

New Load.load_p13ulv16454_2 conn=wye bus1=p13ulv16454.2 kV=0.12 Vminpu=0.8 Vmaxpu=1.2 model=1 kW=4.262954543726521 kvar=0.5048917887531463 Phases=1 yearly=res_kw_4165_pu

New Load.load_p13ulv16455_1 conn=wye bus1=p13ulv16455.1 kV=0.12 Vminpu=0.8 Vmaxpu=1.2 model=1 kW=4.325810501525093 kvar=1.2625879874934725 Phases=1 yearly=res_kw_10249_pu

New Load.load_p13ulv16455_2 conn=wye bus1=p13ulv16455.2 kV=0.12 Vminpu=0.8 Vmaxpu=1.2 model=1 kW=4.325810501525093 kvar=1.2625879874934725 Phases=1 yearly=res_kw_10249_pu

New Load.load_p13ulv16456_1 conn=wye bus1=p13ulv16456.1 kV=0.12 Vminpu=0.8 Vmaxpu=1.2 model=1 kW=10.735190459644919 kvar=3.1253299512110906 Phases=1 yearly=res_kw_79_pu

New Load.load_p13ulv16456_2 conn=wye bus1=p13ulv16456.2 kV=0.12 Vminpu=0.8 Vmaxpu=1.2 model=1 kW=10.735190459644919 kvar=3.1253299512110906 Phases=1 yearly=res_kw_79_pu

New Load.load_p13ulv16457_1 conn=wye bus1=p13ulv16457.1 kV=0.12 Vminpu=0.8 Vmaxpu=1.2 model=1 kW=4.862091494597208 kvar=1.9386593112225794 Phases=1 yearly=res_kw_7318_pu

New Load.load_p13ulv16457_2 conn=wye bus1=p13ulv16457.2 kV=0.12 Vminpu=0.8 Vmaxpu=1.2 model=1 kW=4.862091494597208 kvar=1.9386593112225794 Phases=1 yearly=res_kw_7318_pu

New Load.load_p13ulv16458_1 conn=wye bus1=p13ulv16458.1 kV=0.12 Vminpu=0.8 Vmaxpu=1.2 model=1 kW=7.237939362597203 kvar=1.7003192071601945 Phases=1 yearly=res_kw_1974_pu

New Load.load_p13ulv16458_2 conn=wye bus1=p13ulv16458.2 kV=0.12 Vminpu=0.8 Vmaxpu=1.2 model=1 kW=7.237939362597203 kvar=1.7003192071601945 Phases=1 yearly=res_kw_1974_pu

New Load.load_p13ulv16459_1 conn=wye bus1=p13ulv16459.1 kV=0.12 Vminpu=0.8 Vmaxpu=1.2 model=1 kW=3.104336239022225 kvar=1.4168437856222231 Phases=1 yearly=res_kw_12295_pu

New Load.load_p13ulv16459_2 conn=wye bus1=p13ulv16459.2 kV=0.12 Vminpu=0.8 Vmaxpu=1.2 model=1 kW=3.104336239022225 kvar=1.4168437856222231 Phases=1 yearly=res_kw_12295_pu

New Load.load_p13ulv16460_1 conn=wye bus1=p13ulv16460.1 kV=0.12 Vminpu=0.8 Vmaxpu=1.2 model=1 kW=5.362179307885926 kvar=0.2715726031269967 Phases=1 yearly=res_kw_6510_pu

New Load.load_p13ulv16460_2 conn=wye bus1=p13ulv16460.2 kV=0.12 Vminpu=0.8 Vmaxpu=1.2 model=1 kW=5.362179307885926 kvar=0.2715726031269967 Phases=1 yearly=res_kw_6510_pu

New Load.load_p13ulv16461_1 conn=wye bus1=p13ulv16461.1 kV=0.12 Vminpu=0.8 Vmaxpu=1.2 model=1 kW=2.6400982870935055 kvar=0.6029930298758219 Phases=1 yearly=res_kw_5685_pu

New Load.load_p13ulv16461_2 conn=wye bus1=p13ulv16461.2 kV=0.12 Vminpu=0.8 Vmaxpu=1.2 model=1 kW=2.6400982870935055 kvar=0.6029930298758219 Phases=1 yearly=res_kw_5685_pu

New Load.load_p13ulv16462_1 conn=wye bus1=p13ulv16462.1 kV=0.12 Vminpu=0.8 Vmaxpu=1.2 model=1 kW=6.395514285789837 kvar=0.9522029171822473 Phases=1 yearly=res_kw_12674_pu
