New Line.l(r:p13udt4537lv-p13ulv10050) Units=km Length=0.0128133 bus1=p13udt4537lv.1.2 bus2=p13ulv10050.1.2 switch=n enabled=y phases=2 Linecode=1P_UG_AL_1/0_Brenau_2

New Line.l(r:p13udt4537lv-p13ulv91474) Units=km Length=0.0136592 bus1=p13udt4537lv.1.2 bus2=p13ulv91474.1.2 switch=n enabled=y phases=2 Linecode=1P_UG_AL_1/0_Brenau_2

New Line.l(r:p13udt4537lv-p13ulv91498) Units=km Length=0.0325941 bus1=p13udt4537lv.1.2 bus2=p13ulv91498.1.2 switch=n enabled=y phases=2 Linecode=1P_UG_AL_1/0_Brenau_2

New Line.l(r:p13udm19605-p13ulv91419) Units=km Length=0.0113801 bus1=p13udm19605.1.2 bus2=p13ulv91419.1.2 switch=n enabled=y phases=2 Linecode=1P_UG_AL_1/0_Brenau_2

New Line.l(r:p13udm19605-p13ulv91477) Units=km Length=0.0220145 bus1=p13udm19605.1.2 bus2=p13ulv91477.1.2 switch=n enabled=y phases=2 Linecode=1P_UG_AL_1/0_Brenau_2

New Line.l(r:p13udm19605-p13udt4537lv) Units=km Length=0.0194946 bus1=p13udt4537lv.1.2 bus2=p13udm19605.1.2 switch=n enabled=y phases=2 Linecode=1P_UG_AL_1/0_Brenau_2

New Line.l(r:p13udm19606-p13ulv91433) Units=km Length=0.0122177 bus1=p13udm19606.1.2 bus2=p13ulv91433.1.2 switch=n enabled=y phases=2 Linecode=1P_UG_AL_1/0_Brenau_2

New Line.l(r:p13udm19606-p13ulv91479) Units=km Length=0.0135864 bus1=p13udm19606.1.2 bus2=p13ulv91479.1.2 switch=n enabled=y phases=2 Linecode=1P_UG_AL_1/0_Brenau_2

New Line.l(r:p13udm19610-p13ulv91496) Units=km Length=0.0135489 bus1=p13udm19610.1.2 bus2=p13ulv91496.1.2 switch=n enabled=y phases=2 Linecode=1P_UG_AL_1/0_Brenau_2

New Line.l(r:p13udm19606-p13udm19610) Units=km Length=0.0389839 bus1=p13udm19606.1.2 bus2=p13udm19610.1.2 switch=n enabled=y phases=2 Linecode=1P_UG_AL_1/0_Brenau_2

New Line.l(r:p13udm19606-p13udt4537lv) Units=km Length=0.00974462 bus1=p13udt4537lv.1.2 bus2=p13udm19606.1.2 switch=n enabled=y phases=2 Linecode=1P_UG_AL_4/0_Sweetbriar_2

New Line.l(r:p13udt4538lv-p13ulv10051) Units=km Length=0.0361538 bus1=p13udt4538lv.1.2 bus2=p13ulv10051.1.2 switch=n enabled=y phases=2 Linecode=1P_UG_AL_1/0_Brenau_2

New Line.l(r:p13udt4538lv-p13ulv93278) Units=km Length=0.0116122 bus1=p13udt4538lv.1.2 bus2=p13ulv93278.1.2 switch=n enabled=y phases=2 Linecode=1P_UG_AL_1/0_Brenau_2

New Line.l(r:p13udt4538lv-p13ulv93312) Units=km Length=0.0234791 bus1=p13udt4538lv.1.2 bus2=p13ulv93312.1.2 switch=n enabled=y phases=2 Linecode=1P_UG_AL_1/0_Brenau_2

New Line.l(r:p13udt4538lv-p13ulv93319) Units=km Length=0.0136886 bus1=p13udt4538lv.1.2 bus2=p13ulv93319.1.2 switch=n enabled=y phases=2 Linecode=1P_UG_AL_1/0_Brenau_2

New Line.l(r:p13udm19613-p13ulv88504) Units=km Length=0.0120352 bus1=p13udm19613.1.2 bus2=p13ulv88504.1.2 switch=n enabled=y phases=2 Linecode=1P_UG_AL_1/0_Brenau_2

New Line.l(r:p13udm19613-p13ulv93325) Units=km Length=0.0136244 bus1=p13udm19613.1.2 bus2=p13ulv93325.1.2 switch=n enabled=y phases=2 Linecode=1P_UG_AL_1/0_Brenau_2

New Line.l(r:p13udm19613-p13udt4538lv) Units=km Length=0.00969078 bus1=p13udt4538lv.1.2 bus2=p13udm19613.1.2 switch=n enabled=y phases=2 Linecode=1P_UG_AL_1/0_Brenau_2

New Line.l(r:p13udt4541lv-p13ulv10055) Units=km Length=0.00924578 bus1=p13udt4541lv.1.2 bus2=p13ulv10055.1.2 switch=n enabled=y phases=2 Linecode=1P_UG_AL_1/0_Brenau_2

New Line.l(r:p13udt6440lv-p13ulv14320) Units=km Length=0.009266540000000002 bus1=p13udt6440lv.1.2 bus2=p13ulv14320.1.2 switch=n enabled=y phases=2 Linecode=1P_UG_AL_1/0_Brenau_2

New Line.l(r:p13udm27743-p13ulv14355) Units=km Length=0.00926983 bus1=p13udm27743.1.2 bus2=p13ulv14355.1.2 switch=n enabled=y phases=2 Linecode=1P_UG_AL_2/0_Converse_2

New Line.l(r:p13udm27743-p13udt6440lv) Units=km Length=0.00886484 bus1=p13udt6440lv.1.2 bus2=p13udm27743.1.2 switch=n enabled=y phases=2 Linecode=1P_UG_AL_2/0_Converse_2

New Line.l(r:p13udm27744-p13ulv90531) Units=km Length=0.0327316 bus1=p13udm27744.1.2 bus2=p13ulv90531.1.2 switch=n enabled=y phases=2 Linecode=1P_UG_AL_1/0_Brenau_2

New Line.l(r:p13udm27744-p13udt6440lv) Units=km Length=0.00886995 bus1=p13udt6440lv.1.2 bus2=p13udm27744.1.2 switch=n enabled=y phases=2 Linecode=1P_UG_AL_1/0_Brenau_2

New Line.l(r:p13udt6441lv-p13ulv14321) Units=km Length=0.0130601 bus1=p13udt6441lv.1.2 bus2=p13ulv14321.1.2 switch=n enabled=y phases=2 Linecode=1P_UG_AL_4/0_Sweetbriar_2

New Line.l(r:p13udm27746-p13ulv14358) Units=km Length=0.0149165 bus1=p13udm27746.1.2 bus2=p13ulv14358.1.2 switch=n enabled=y phases=2 Linecode=1P_UG_AL_1/0_Brenau_2

New Line.l(r:p13udm27746-p13udt6441lv) Units=km Length=0.00949764 bus1=p13udt6441lv.1.2 bus2=p13udm27746.1.2 switch=n enabled=y phases=2 Linecode=1P_UG_AL_1/0_Brenau_2

New Line.l(r:p13udm27747-p13ulv90517) Units=km Length=0.0321008 bus1=p13udm27747.1.2 bus2=p13ulv90517.1.2 switch=n enabled=y phases=2 Linecode=1P_UG_AL_1/0_Brenau_2

New Line.l(r:p13udm27747-p13udt6441lv) Units=km Length=0.00886995 bus1=p13udt6441lv.1.2 bus2=p13udm27747.1.2 switch=n enabled=y phases=2 Linecode=1P_UG_AL_1/0_Brenau_2

New Line.l(r:p13udm27748-p13ulv14322) Units=km Length=0.0148118 bus1=p13udm27748.1.2 bus2=p13ulv14322.1.2 switch=n enabled=y phases=2 Linecode=1P_UG_AL_4/0_Sweetbriar_2

New Line.l(r:p13udm27748-p13ulv90481) Units=km Length=0.0139753 bus1=p13udm27748.1.2 bus2=p13ulv90481.1.2 switch=n enabled=y phases=2 Linecode=1P_UG_AL_1/0_Brenau_2

New Line.l(r:p13udm27748-p13ulv90498) Units=km Length=0.00899841 bus1=p13udm27748.1.2 bus2=p13ulv90498.1.2 switch=n enabled=y phases=2 Linecode=1P_UG_AL_2/0_Converse_2

New Line.l(r:p13udm27749-p13ulv90473) Units=km Length=0.0146691 bus1=p13udm27749.1.2 bus2=p13ulv90473.1.2 switch=n enabled=y phases=2 Linecode=1P_UG_AL_1/0_Brenau_2

New Line.l(r:p13udm27748-p13udm27749) Units=km Length=0.00949253 bus1=p13udm27748.1.2 bus2=p13udm27749.1.2 switch=n enabled=y phases=2 Linecode=1P_UG_AL_1/0_Brenau_2

New Line.l(r:p13udm27748-p13udt6442lv) Units=km Length=0.00948905 bus1=p13udt6442lv.1.2 bus2=p13udm27748.1.2 switch=n enabled=y phases=2 Linecode=1P_UG_AL_4/0_Sweetbriar_2

New Line.l(r:p13udm27751-p13ulv90497) Units=km Length=0.0157465 bus1=p13udm27751.1.2 bus2=p13ulv90497.1.2 switch=n enabled=y phases=2 Linecode=1P_UG_AL_1/0_Brenau_2

New Line.l(r:p13udm27751-p13udt6442lv) Units=km Length=0.0272375 bus1=p13udt6442lv.1.2 bus2=p13udm27751.1.2 switch=n enabled=y phases=2 Linecode=1P_UG_AL_1/0_Brenau_2

New Line.l(r:p13udt6443lv-p13ulv14360) Units=km Length=0.0356147 bus1=p13udt6443lv.1.2 bus2=p13ulv14360.1.2 switch=n enabled=y phases=2 Linecode=1P_UG_AL_1/0_Brenau_2

New Line.l(r:p13udm27754-p13ulv14329) Units=km Length=0.015067800000000001 bus1=p13udm27754.1.2 bus2=p13ulv14329.1.2 switch=n enabled=y phases=2 Linecode=1P_UG_AL_1/0_Brenau_2

New Line.l(r:p13udm27754-p13ulv90456) Units=km Length=0.0139156 bus1=p13udm27754.1.2 bus2=p13ulv90456.1.2 switch=n enabled=y phases=2 Linecode=1P_UG_AL_1/0_Brenau_2

New Line.l(r:p13udm27755-p13ulv14330) Units=km Length=0.0137465 bus1=p13udm27755.1.2 bus2=p13ulv14330.1.2 switch=n enabled=y phases=2 Linecode=1P_UG_AL_1/0_Brenau_2

New Line.l(r:p13udm27756-p13ulv14331) Units=km Length=0.015192300000000002 bus1=p13udm27756.1.2 bus2=p13ulv14331.1.2 switch=n enabled=y phases=2 Linecode=1P_UG_AL_1/0_Brenau_2

New Line.l(r:p13udm27755-p13udm27756) Units=km Length=0.00948393 bus1=p13udm27755.1.2 bus2=p13udm27756.1.2 switch=n enabled=y phases=2 Linecode=1P_UG_AL_1/0_Brenau_2

New Line.l(r:p13udm27754-p13udm27755) Units=km Length=0.00949764 bus1=p13udm27754.1.2 bus2=p13udm27755.1.2 switch=n enabled=y phases=2 Linecode=1P_UG_AL_1/0_Brenau_2

New Line.l(r:p13udm27754-p13udt6443lv) Units=km Length=0.00949764 bus1=p13udt6443lv.1.2 bus2=p13udm27754.1.2 switch=n enabled=y phases=2 Linecode=1P_UG_AL_4/0_Sweetbriar_2

New Line.l(r:p13udm27759-p13ulv90467) Units=km Length=0.0146129 bus1=p13udm27759.1.2 bus2=p13ulv90467.1.2 switch=n enabled=y phases=2 Linecode=1P_UG_AL_1/0_Brenau_2

New Line.l(r:p13udm27759-p13ulv90476) Units=km Length=0.0145169 bus1=p13udm27759.1.2 bus2=p13ulv90476.1.2 switch=n enabled=y phases=2 Linecode=1P_UG_AL_1/0_Brenau_2

New Line.l(r:p13udm27753-p13ulv14323) Units=km Length=0.0151396 bus1=p13udm27753.1.2 bus2=p13ulv14323.1.2 switch=n enabled=y phases=2 Linecode=1P_UG_AL_2/0_Converse_2

New Line.l(r:p13udm27753-p13udm27759) Units=km Length=0.00949764 bus1=p13udm27759.1.2 bus2=p13udm27753.1.2 switch=n enabled=y phases=2 Linecode=1P_UG_AL_2/0_Converse_2

New Line.l(r:p13udm27759-p13udt6443lv) Units=km Length=0.00948905 bus1=p13udt6443lv.1.2 bus2=p13udm27759.1.2 switch=n enabled=y phases=2 Linecode=1P_UG_AL_4/0_Sweetbriar_2

New Line.l(r:p13udt6447lv-p13ulv90349) Units=km Length=0.0138954 bus1=p13udt6447lv.1.2 bus2=p13ulv90349.1.2 switch=n enabled=y phases=2 Linecode=1P_UG_AL_1/0_Brenau_2

New Line.l(r:p13udm27771-p13ulv14372) Units=km Length=0.00717279 bus1=p13udm27771.1.2 bus2=p13ulv14372.1.2 switch=n enabled=y phases=2 Linecode=1P_UG_AL_1/0_Brenau_2

New Line.l(r:p13udm27771-p13ulv14391) Units=km Length=0.00755175 bus1=p13udm27771.1.2 bus2=p13ulv14391.1.2 switch=n enabled=y phases=2 Linecode=1P_UG_AL_1/0_Brenau_2

New Line.l(r:p13udm27769-p13ulv14338) Units=km Length=0.0151007 bus1=p13udm27769.1.2 bus2=p13ulv14338.1.2 switch=n enabled=y phases=2 Linecode=1P_UG_AL_1/0_Brenau_2

New Line.l(r:p13udm27770-p13ulv14371) Units=km Length=0.009793520000000002 bus1=p13udm27770.1.2 bus2=p13ulv14371.1.2 switch=n enabled=y phases=2 Linecode=1P_UG_AL_1/0_Brenau_2

New Line.l(r:p13udm27769-p13udm27770) Units=km Length=0.00998642 bus1=p13udm27769.1.2 bus2=p13udm27770.1.2 switch=n enabled=y phases=2 Linecode=1P_UG_AL_1/0_Brenau_2

New Line.l(r:p13udm27769-p13udm27771) Units=km Length=0.018866700000000004 bus1=p13udm27771.1.2 bus2=p13udm27769.1.2 switch=n enabled=y phases=2 Linecode=1P_UG_AL_2/0_Converse_2

New Line.l(r:p13udm27773-p13ulv14392) Units=km Length=0.0146565 bus1=p13udm27773.1.2 bus2=p13ulv14392.1.2 switch=n enabled=y phases=2 Linecode=1P_UG_AL_1/0_Brenau_2

New Line.l(r:p13udm27771-p13udm27773) Units=km Length=0.0177607 bus1=p13udm27771.1.2 bus2=p13udm27773.1.2 switch=n enabled=y phases=2 Linecode=1P_UG_AL_1/0_Brenau_2

New Line.l(r:p13udm27771-p13udt6447lv) Units=km Length=0.0184589 bus1=p13udt6447lv.1.2 bus2=p13udm27771.1.2 switch=n enabled=y phases=2 Linecode=1P_UG_AL_4/0_Sweetbriar_2

New Line.l(r:p13udm27776-p13ulv90342) Units=km Length=0.0139178 bus1=p13udm27776.1.2 bus2=p13ulv90342.1.2 switch=n enabled=y phases=2 Linecode=1P_UG_AL_1/0_Brenau_2

New Line.l(r:p13udm27774-p13ulv14393) Units=km Length=0.0118649 bus1=p13udm27774.1.2 bus2=p13ulv14393.1.2 switch=n enabled=y phases=2 Linecode=1P_UG_AL_1/0_Brenau_2

New Line.l(r:p13udm27774-p13ulv90331) Units=km Length=0.0140341 bus1=p13udm27774.1.2 bus2=p13ulv90331.1.2 switch=n enabled=y phases=2 Linecode=1P_UG_AL_1/0_Brenau_2

New Line.l(r:p13udm27774-p13udm27776) Units=km Length=0.00957856 bus1=p13udm27776.1.2 bus2=p13udm27774.1.2 switch=n enabled=y phases=2 Linecode=1P_UG_AL_2/0_Converse_2

New Line.l(r:p13udm27776-p13udt6447lv) Units=km Length=0.00958379 bus1=p13udt6447lv.1.2 bus2=p13udm27776.1.2 switch=n enabled=y phases=2 Linecode=1P_UG_AL_4/0_Sweetbriar_2

New Line.l(r:p13udt6448lv-p13ulv14342) Units=km Length=0.0142027 bus1=p13udt6448lv.1.2 bus2=p13ulv14342.1.2 switch=n enabled=y phases=2 Linecode=1P_UG_AL_1/0_Brenau_2

New Line.l(r:p13udt6448lv-p13ulv14397) Units=km Length=0.0124953 bus1=p13udt6448lv.1.2 bus2=p13ulv14397.1.2 switch=n enabled=y phases=2 Linecode=1P_UG_AL_1/0_Brenau_2

New Line.l(r:p13udm27779-p13ulv14343) Units=km Length=0.011710900000000002 bus1=p13udm27779.1.2 bus2=p13ulv14343.1.2 switch=n enabled=y phases=2 Linecode=1P_UG_AL_4/0_Sweetbriar_2

New Line.l(r:p13udm27779-p13ulv92210) Units=km Length=0.0141477 bus1=p13udm27779.1.2 bus2=p13ulv92210.1.2 switch=n enabled=y phases=2 Linecode=1P_UG_AL_1/0_Brenau_2

New Line.l(r:p13udm27779-p13udt6448lv) Units=km Length=0.00958379 bus1=p13udt6448lv.1.2 bus2=p13udm27779.1.2 switch=n enabled=y phases=2 Linecode=1P_UG_AL_4/0_Sweetbriar_2

New Line.l(r:p13udm27781-p13ulv14396) Units=km Length=0.011539900000000002 bus1=p13udm27781.1.2 bus2=p13ulv14396.1.2 switch=n enabled=y phases=2 Linecode=1P_UG_AL_1/0_Brenau_2

New Line.l(r:p13udm27781-p13ulv92243) Units=km Length=0.0140076 bus1=p13udm27781.1.2 bus2=p13ulv92243.1.2 switch=n enabled=y phases=2 Linecode=1P_UG_AL_1/0_Brenau_2

New Line.l(r:p13udm27780-p13ulv14395) Units=km Length=0.011524 bus1=p13udm27780.1.2 bus2=p13ulv14395.1.2 switch=n enabled=y phases=2 Linecode=1P_UG_AL_1/0_Brenau_2

New Line.l(r:p13udm27780-p13ulv92255) Units=km Length=0.013956 bus1=p13udm27780.1.2 bus2=p13ulv92255.1.2 switch=n enabled=y phases=2 Linecode=1P_UG_AL_1/0_Brenau_2

New Line.l(r:p13udm27780-p13udm27781) Units=km Length=0.00958379 bus1=p13udm27781.1.2 bus2=p13udm27780.1.2 switch=n enabled=y phases=2 Linecode=1P_UG_AL_1/0_Brenau_2

New Line.l(r:p13udm27781-p13udt6448lv) Units=km Length=0.00957856 bus1=p13udt6448lv.1.2 bus2=p13udm27781.1.2 switch=n enabled=y phases=2 Linecode=1P_UG_AL_4/0_Sweetbriar_2

New Line.l(r:p13udt6450lv-p13ulv14347) Units=km Length=0.058522500000000005 bus1=p13udt6450lv.1.2 bus2=p13ulv14347.1.2 switch=n enabled=y phases=2 Linecode=1P_UG_AL_2/0_Converse_2

New Line.l(r:p13udt6450lv-p13ulv92149) Units=km Length=0.0421216 bus1=p13udt6450lv.1.2 bus2=p13ulv92149.1.2 switch=n enabled=y phases=2 Linecode=1P_UG_AL_1/0_Brenau_2

New Line.l(r:p13udm27789-p13ulv92193) Units=km Length=0.0326954 bus1=p13udm27789.1.2 bus2=p13ulv92193.1.2 switch=n enabled=y phases=2 Linecode=1P_UG_AL_1/0_Brenau_2

New Line.l(r:p13udm27789-p13udt6450lv) Units=km Length=0.0257783 bus1=p13udt6450lv.1.2 bus2=p13udm27789.1.2 switch=n enabled=y phases=2 Linecode=1P_UG_AL_1/0_Brenau_2

New Line.l(r:p13udt6453lv-p13ulv14354) Units=km Length=0.015802 bus1=p13udt6453lv.1.2 bus2=p13ulv14354.1.2 switch=n enabled=y phases=2 Linecode=1P_OH_AL_2/0_Rucina_2

New Line.l(r:p13udt6456lv-p13ulv14362) Units=km Length=0.013593000000000001 bus1=p13udt6456lv.1.2 bus2=p13ulv14362.1.2 switch=n enabled=y phases=2 Linecode=1P_UG_AL_1/0_Brenau_2

New Line.l(r:p13udm27804-p13ulv14361) Units=km Length=0.0143916 bus1=p13udm27804.1.2 bus2=p13ulv14361.1.2 switch=n enabled=y phases=2 Linecode=1P_UG_AL_1/0_Brenau_2

New Line.l(r:p13udm27804-p13ulv90453) Units=km Length=0.0170791 bus1=p13udm27804.1.2 bus2=p13ulv90453.1.2 switch=n enabled=y phases=2 Linecode=1P_UG_AL_1/0_Brenau_2

New Line.l(r:p13udm27804-p13udt6456lv) Units=km Length=0.00897798 bus1=p13udt6456lv.1.2 bus2=p13udm27804.1.2 switch=n enabled=y phases=2 Linecode=1P_UG_AL_4/0_Sweetbriar_2

New Line.l(r:p13udm27807-p13ulv90428) Units=km Length=0.0120906 bus1=p13udm27807.1.2 bus2=p13ulv90428.1.2 switch=n enabled=y phases=2 Linecode=1P_UG_AL_2/0_Converse_2

New Line.l(r:p13udm27807-p13ulv90455) Units=km Length=0.0348676 bus1=p13udm27807.1.2 bus2=p13ulv90455.1.2 switch=n enabled=y phases=2 Linecode=1P_UG_AL_1/0_Brenau_2

New Line.l(r:p13udm27806-p13ulv14363) Units=km Length=0.0134383 bus1=p13udm27806.1.2 bus2=p13ulv14363.1.2 switch=n enabled=y phases=2 Linecode=1P_UG_AL_1/0_Brenau_2

New Line.l(r:p13udm27806-p13udm27807) Units=km Length=0.00898657 bus1=p13udm27807.1.2 bus2=p13udm27806.1.2 switch=n enabled=y phases=2 Linecode=1P_UG_AL_1/0_Brenau_2

New Line.l(r:p13udm27807-p13udt6456lv) Units=km Length=0.00898145 bus1=p13udt6456lv.1.2 bus2=p13udm27807.1.2 switch=n enabled=y phases=2 Linecode=1P_UG_AL_4/0_Sweetbriar_2

New Line.l(r:p13udt6457lv-p13ulv14365) Units=km Length=0.0129668 bus1=p13udt6457lv.1.2 bus2=p13ulv14365.1.2 switch=n enabled=y phases=2 Linecode=1P_UG_AL_2/0_Converse_2

New Line.l(r:p13udt6457lv-p13ulv90407) Units=km Length=0.0135768 bus1=p13udt6457lv.1.2 bus2=p13ulv90407.1.2 switch=n enabled=y phases=2 Linecode=1P_UG_AL_1/0_Brenau_2

New Line.l(r:p13udt6458lv-p13ulv14368) Units=km Length=0.014428 bus1=p13udt6458lv.1.2 bus2=p13ulv14368.1.2 switch=n enabled=y phases=2 Linecode=1P_UG_AL_1/0_Brenau_2

New Line.l(r:p13udt6458lv-p13ulv90383) Units=km Length=0.0147127 bus1=p13udt6458lv.1.2 bus2=p13ulv90383.1.2 switch=n enabled=y phases=2 Linecode=1P_UG_AL_1/0_Brenau_2

New Line.l(r:p13udm27812-p13ulv14367) Units=km Length=0.012523600000000001 bus1=p13udm27812.1.2 bus2=p13ulv14367.1.2 switch=n enabled=y phases=2 Linecode=1P_UG_AL_1/0_Brenau_2

New Line.l(r:p13udm27812-p13ulv90377) Units=km Length=0.032268 bus1=p13udm27812.1.2 bus2=p13ulv90377.1.2 switch=n enabled=y phases=2 Linecode=1P_UG_AL_1/0_Brenau_2

New Line.l(r:p13udm27812-p13ulv90397) Units=km Length=0.0143134 bus1=p13udm27812.1.2 bus2=p13ulv90397.1.2 switch=n enabled=y phases=2 Linecode=1P_UG_AL_1/0_Brenau_2

New Line.l(r:p13udm27812-p13udt6458lv) Units=km Length=0.00998642 bus1=p13udt6458lv.1.2 bus2=p13udm27812.1.2 switch=n enabled=y phases=2 Linecode=1P_UG_AL_1/0_Brenau_2

New Line.l(r:p13udm27814-p13ulv14369) Units=km Length=0.0118744 bus1=p13udm27814.1.2 bus2=p13ulv14369.1.2 switch=n enabled=y phases=2 Linecode=1P_UG_AL_1/0_Brenau_2

New Line.l(r:p13udm27814-p13ulv90373) Units=km Length=0.0147915 bus1=p13udm27814.1.2 bus2=p13ulv90373.1.2 switch=n enabled=y phases=2 Linecode=1P_UG_AL_1/0_Brenau_2

New Line.l(r:p13udm27815-p13ulv14370) Units=km Length=0.0114642 bus1=p13udm27815.1.2 bus2=p13ulv14370.1.2 switch=n enabled=y phases=2 Linecode=1P_UG_AL_1/0_Brenau_2

New Line.l(r:p13udm27814-p13udm27815) Units=km Length=0.00998642 bus1=p13udm27814.1.2 bus2=p13udm27815.1.2 switch=n enabled=y phases=2 Linecode=1P_UG_AL_1/0_Brenau_2

New Line.l(r:p13udm27814-p13udt6458lv) Units=km Length=0.0199728 bus1=p13udt6458lv.1.2 bus2=p13udm27814.1.2 switch=n enabled=y phases=2 Linecode=1P_UG_AL_2/0_Converse_2

New Line.l(r:p13udt6459lv-p13ulv14373) Units=km Length=0.0108945 bus1=p13udt6459lv.1.2 bus2=p13ulv14373.1.2 switch=n enabled=y phases=2 Linecode=1P_UG_AL_1/0_Brenau_2

New Line.l(r:p13udt6459lv-p13ulv92212) Units=km Length=0.0132143 bus1=p13udt6459lv.1.2 bus2=p13ulv92212.1.2 switch=n enabled=y phases=2 Linecode=1P_UG_AL_1/0_Brenau_2

New Line.l(r:p13udm27821-p13ulv14374) Units=km Length=0.0107167 bus1=p13udm27821.1.2 bus2=p13ulv14374.1.2 switch=n enabled=y phases=2 Linecode=1P_UG_AL_1/0_Brenau_2

New Line.l(r:p13udm27821-p13ulv92204) Units=km Length=0.01356 bus1=p13udm27821.1.2 bus2=p13ulv92204.1.2 switch=n enabled=y phases=2 Linecode=1P_UG_AL_1/0_Brenau_2

New Line.l(r:p13udm27822-p13ulv14375) Units=km Length=0.00766152 bus1=p13udm27822.1.2 bus2=p13ulv14375.1.2 switch=n enabled=y phases=2 Linecode=1P_UG_AL_1/0_Brenau_2

New Line.l(r:p13udm27822-p13ulv17613) Units=km Length=0.0127887 bus1=p13udm27822.1.2 bus2=p13ulv17613.1.2 switch=n enabled=y phases=2 Linecode=1P_UG_AL_1/0_Brenau_2

New Line.l(r:p13udm27821-p13udm27822) Units=km Length=0.00941951 bus1=p13udm27821.1.2 bus2=p13udm27822.1.2 switch=n enabled=y phases=2 Linecode=1P_UG_AL_1/0_Brenau_2

New Line.l(r:p13udm27821-p13udt6459lv) Units=km Length=0.00941448 bus1=p13udt6459lv.1.2 bus2=p13udm27821.1.2 switch=n enabled=y phases=2 Linecode=1P_UG_AL_4/0_Sweetbriar_2

New Line.l(r:p13udm27826-p13ulv92247) Units=km Length=0.0105453 bus1=p13udm27826.1.2 bus2=p13ulv92247.1.2 switch=n enabled=y phases=2 Linecode=1P_UG_AL_1/0_Brenau_2

New Line.l(r:p13udm27827-p13ulv92254) Units=km Length=0.0103085 bus1=p13udm27827.1.2 bus2=p13ulv92254.1.2 switch=n enabled=y phases=2 Linecode=1P_UG_AL_1/0_Brenau_2

New Line.l(r:p13udm27826-p13udm27827) Units=km Length=0.0183084 bus1=p13udm27826.1.2 bus2=p13udm27827.1.2 switch=n enabled=y phases=2 Linecode=1P_UG_AL_1/0_Brenau_2

New Line.l(r:p13udm27826-p13udt6459lv) Units=km Length=0.00941951 bus1=p13udt6459lv.1.2 bus2=p13udm27826.1.2 switch=n enabled=y phases=2 Linecode=1P_UG_AL_1/0_Brenau_2

New Line.l(r:p13udt6460lv-p13ulv92246) Units=km Length=0.0117385 bus1=p13udt6460lv.1.2 bus2=p13ulv92246.1.2 switch=n enabled=y phases=2 Linecode=1P_UG_AL_1/0_Brenau_2

New Line.l(r:p13udm27828-p13ulv14376) Units=km Length=0.0122501 bus1=p13udm27828.1.2 bus2=p13ulv14376.1.2 switch=n enabled=y phases=2 Linecode=1P_UG_AL_1/0_Brenau_2

New Line.l(r:p13udm27828-p13ulv14377) Units=km Length=0.0125158 bus1=p13udm27828.1.2 bus2=p13ulv14377.1.2 switch=n enabled=y phases=2 Linecode=1P_UG_AL_1/0_Brenau_2

New Line.l(r:p13udm27828-p13ulv17648) Units=km Length=0.0134492 bus1=p13udm27828.1.2 bus2=p13ulv17648.1.2 switch=n enabled=y phases=2 Linecode=1P_UG_AL_1/0_Brenau_2

New Line.l(r:p13udm27831-p13ulv92222) Units=km Length=0.0135407 bus1=p13udm27831.1.2 bus2=p13ulv92222.1.2 switch=n enabled=y phases=2 Linecode=1P_UG_AL_1/0_Brenau_2

New Line.l(r:p13udm27828-p13udm27831) Units=km Length=0.00986471 bus1=p13udm27828.1.2 bus2=p13udm27831.1.2 switch=n enabled=y phases=2 Linecode=1P_UG_AL_1/0_Brenau_2

New Line.l(r:p13udm27828-p13udt6460lv) Units=km Length=0.00985565 bus1=p13udt6460lv.1.2 bus2=p13udm27828.1.2 switch=n enabled=y phases=2 Linecode=1P_UG_AL_4/0_Sweetbriar_2

New Line.l(r:p13udm27832-p13ulv92240) Units=km Length=0.0130008 bus1=p13udm27832.1.2 bus2=p13ulv92240.1.2 switch=n enabled=y phases=2 Linecode=1P_UG_AL_1/0_Brenau_2

New Line.l(r:p13udm27832-p13ulv92258) Units=km Length=0.013147300000000002 bus1=p13udm27832.1.2 bus2=p13ulv92258.1.2 switch=n enabled=y phases=2 Linecode=1P_UG_AL_1/0_Brenau_2

New Line.l(r:p13udm27832-p13udt6460lv) Units=km Length=0.00985565 bus1=p13udt6460lv.1.2 bus2=p13udm27832.1.2 switch=n enabled=y phases=2 Linecode=1P_UG_AL_4/0_Sweetbriar_2

New Line.l(r:p13udt6461lv-p13ulv17647) Units=km Length=0.0137807 bus1=p13udt6461lv.1.2 bus2=p13ulv17647.1.2 switch=n enabled=y phases=2 Linecode=1P_UG_AL_1/0_Brenau_2

New Line.l(r:p13udt6461lv-p13ulv90335) Units=km Length=0.0130983 bus1=p13udt6461lv.1.2 bus2=p13ulv90335.1.2 switch=n enabled=y phases=2 Linecode=1P_UG_AL_1/0_Brenau_2

New Line.l(r:p13udm27836-p13ulv14379) Units=km Length=0.0416039 bus1=p13udm27836.1.2 bus2=p13ulv14379.1.2 switch=n enabled=y phases=2 Linecode=1P_UG_AL_1/0_Brenau_2

New Line.l(r:p13udm27835-p13ulv14378) Units=km Length=0.0342274 bus1=p13udm27835.1.2 bus2=p13ulv14378.1.2 switch=n enabled=y phases=2 Linecode=1P_UG_AL_1/0_Brenau_2

New Line.l(r:p13udm27835-p13udm27836) Units=km Length=0.00985142 bus1=p13udm27836.1.2 bus2=p13udm27835.1.2 switch=n enabled=y phases=2 Linecode=1P_UG_AL_1/0_Brenau_2

New Line.l(r:p13udm27836-p13udt6461lv) Units=km Length=0.00950224 bus1=p13udt6461lv.1.2 bus2=p13udm27836.1.2 switch=n enabled=y phases=2 Linecode=1P_UG_AL_1/0_Brenau_2

New Line.l(r:p13udm27837-p13ulv14381) Units=km Length=0.0126071 bus1=p13udm27837.1.2 bus2=p13ulv14381.1.2 switch=n enabled=y phases=2 Linecode=1P_UG_AL_1/0_Brenau_2

New Line.l(r:p13udm27837-p13ulv17646) Units=km Length=0.0119881 bus1=p13udm27837.1.2 bus2=p13ulv17646.1.2 switch=n enabled=y phases=2 Linecode=1P_UG_AL_1/0_Brenau_2

New Line.l(r:p13udm27837-p13udt6461lv) Units=km Length=0.00950224 bus1=p13udt6461lv.1.2 bus2=p13udm27837.1.2 switch=n enabled=y phases=2 Linecode=1P_UG_AL_1/0_Brenau_2

New Line.l(r:p13udt6462lv-p13ulv14380) Units=km Length=0.0413793 bus1=p13udt6462lv.1.2 bus2=p13ulv14380.1.2 switch=n enabled=y phases=2 Linecode=1P_UG_AL_1/0_Brenau_2

New Line.l(r:p13udt6462lv-p13ulv14382) Units=km Length=0.012644 bus1=p13udt6462lv.1.2 bus2=p13ulv14382.1.2 switch=n enabled=y phases=2 Linecode=1P_UG_AL_1/0_Brenau_2

New Line.l(r:p13udt6462lv-p13ulv17645) Units=km Length=0.0134949 bus1=p13udt6462lv.1.2 bus2=p13ulv17645.1.2 switch=n enabled=y phases=2 Linecode=1P_UG_AL_1/0_Brenau_2

New Line.l(r:p13udm27843-p13ulv14383) Units=km Length=0.0118588 bus1=p13udm27843.1.2 bus2=p13ulv14383.1.2 switch=n enabled=y phases=2 Linecode=1P_UG_AL_1/0_Brenau_2

New Line.l(r:p13udm27843-p13ulv90347) Units=km Length=0.0136193 bus1=p13udm27843.1.2 bus2=p13ulv90347.1.2 switch=n enabled=y phases=2 Linecode=1P_UG_AL_1/0_Brenau_2

New Line.l(r:p13udm27843-p13udt6462lv) Units=km Length=0.00948895 bus1=p13udt6462lv.1.2 bus2=p13udm27843.1.2 switch=n enabled=y phases=2 Linecode=1P_UG_AL_2/0_Converse_2

New Line.l(r:p13udt6463lv-p13ulv14385) Units=km Length=0.012699800000000002 bus1=p13udt6463lv.1.2 bus2=p13ulv14385.1.2 switch=n enabled=y phases=2 Linecode=1P_UG_AL_2/0_Converse_2

New Line.l(r:p13udm27849-p13ulv90379) Units=km Length=0.0121552 bus1=p13udm27849.1.2 bus2=p13ulv90379.1.2 switch=n enabled=y phases=2 Linecode=1P_UG_AL_1/0_Brenau_2

New Line.l(r:p13udm27846-p13ulv14384) Units=km Length=0.00993363 bus1=p13udm27846.1.2 bus2=p13ulv14384.1.2 switch=n enabled=y phases=2 Linecode=1P_UG_AL_1/0_Brenau_2

New Line.l(r:p13udm27846-p13ulv90358) Units=km Length=0.014003 bus1=p13udm27846.1.2 bus2=p13ulv90358.1.2 switch=n enabled=y phases=2 Linecode=1P_UG_AL_1/0_Brenau_2

New Line.l(r:p13udm27846-p13udm27849) Units=km Length=0.00950224 bus1=p13udm27849.1.2 bus2=p13udm27846.1.2 switch=n enabled=y phases=2 Linecode=1P_UG_AL_2/0_Converse_2

New Line.l(r:p13udm27849-p13udt6463lv) Units=km Length=0.00950224 bus1=p13udt6463lv.1.2 bus2=p13udm27849.1.2 switch=n enabled=y phases=2 Linecode=1P_UG_AL_4/0_Sweetbriar_2

New Line.l(r:p13udm27850-p13ulv90421) Units=km Length=0.0364782 bus1=p13udm27850.1.2 bus2=p13ulv90421.1.2 switch=n enabled=y phases=2 Linecode=1P_UG_AL_1/0_Brenau_2

New Line.l(r:p13udm27850-p13udt6463lv) Units=km Length=0.027026 bus1=p13udt6463lv.1.2 bus2=p13udm27850.1.2 switch=n enabled=y phases=2 Linecode=1P_UG_AL_1/0_Brenau_2

New Line.l(r:p13udt6464lv-p13ulv14386) Units=km Length=0.00706601 bus1=p13udt6464lv.1.2 bus2=p13ulv14386.1.2 switch=n enabled=y phases=2 Linecode=1P_UG_AL_4/0_Sweetbriar_2

New Line.l(r:p13udt6464lv-p13ulv17642) Units=km Length=0.0136068 bus1=p13udt6464lv.1.2 bus2=p13ulv17642.1.2 switch=n enabled=y phases=2 Linecode=1P_UG_AL_1/0_Brenau_2

New Line.l(r:p13udm27852-p13ulv17641) Units=km Length=0.0146061 bus1=p13udm27852.1.2 bus2=p13ulv17641.1.2 switch=n enabled=y phases=2 Linecode=1P_UG_AL_4/0_Sweetbriar_2

New Line.l(r:p13udm27852-p13udt6464lv) Units=km Length=0.0175238 bus1=p13udt6464lv.1.2 bus2=p13udm27852.1.2 switch=n enabled=y phases=2 Linecode=1P_UG_AL_4/0_Sweetbriar_2

New Line.l(r:p13udm27854-p13ulv90365) Units=km Length=0.0140097 bus1=p13udm27854.1.2 bus2=p13ulv90365.1.2 switch=n enabled=y phases=2 Linecode=1P_UG_AL_1/0_Brenau_2

New Line.l(r:p13udm27854-p13udt6464lv) Units=km Length=0.00950224 bus1=p13udt6464lv.1.2 bus2=p13udm27854.1.2 switch=n enabled=y phases=2 Linecode=1P_UG_AL_1/0_Brenau_2

New Line.l(r:p13udt6466lv-p13ulv17639) Units=km Length=0.0124704 bus1=p13udt6466lv.1.2 bus2=p13ulv17639.1.2 switch=n enabled=y phases=2 Linecode=1P_UG_AL_1/0_Brenau_2

New Line.l(r:p13udm27856-p13ulv14388) Units=km Length=0.0082062 bus1=p13udm27856.1.2 bus2=p13ulv14388.1.2 switch=n enabled=y phases=2 Linecode=1P_UG_AL_4/0_Sweetbriar_2

New Line.l(r:p13udm27859-p13ulv90429) Units=km Length=0.0125877 bus1=p13udm27859.1.2 bus2=p13ulv90429.1.2 switch=n enabled=y phases=2 Linecode=1P_UG_AL_1/0_Brenau_2

New Line.l(r:p13udm27856-p13udm27859) Units=km Length=0.00873856 bus1=p13udm27856.1.2 bus2=p13udm27859.1.2 switch=n enabled=y phases=2 Linecode=1P_UG_AL_1/0_Brenau_2

New Line.l(r:p13udm27856-p13udt6466lv) Units=km Length=0.00872993 bus1=p13udt6466lv.1.2 bus2=p13udm27856.1.2 switch=n enabled=y phases=2 Linecode=1P_UG_AL_4/0_Sweetbriar_2

New Line.l(r:p13udm27858-p13ulv17640) Units=km Length=0.0131532 bus1=p13udm27858.1.2 bus2=p13ulv17640.1.2 switch=n enabled=y phases=2 Linecode=1P_UG_AL_1/0_Brenau_2

New Line.l(r:p13udm27858-p13udt6466lv) Units=km Length=0.00873497 bus1=p13udt6466lv.1.2 bus2=p13udm27858.1.2 switch=n enabled=y phases=2 Linecode=1P_UG_AL_1/0_Brenau_2

New Line.l(r:p13udt6467lv-p13ulv14389) Units=km Length=0.014535000000000001 bus1=p13udt6467lv.1.2 bus2=p13ulv14389.1.2 switch=n enabled=y phases=2 Linecode=1P_UG_AL_1/0_Brenau_2

New Line.l(r:p13udt6467lv-p13ulv90445) Units=km Length=0.0123713 bus1=p13udt6467lv.1.2 bus2=p13ulv90445.1.2 switch=n enabled=y phases=2 Linecode=1P_UG_AL_1/0_Brenau_2

New Line.l(r:p13udm27861-p13ulv90423) Units=km Length=0.0366175 bus1=p13udm27861.1.2 bus2=p13ulv90423.1.2 switch=n enabled=y phases=2 Linecode=1P_UG_AL_1/0_Brenau_2

New Line.l(r:p13udm27861-p13udt6467lv) Units=km Length=0.00873497 bus1=p13udt6467lv.1.2 bus2=p13udm27861.1.2 switch=n enabled=y phases=2 Linecode=1P_UG_AL_1/0_Brenau_2

New Line.l(r:p13udm27863-p13ulv90454) Units=km Length=0.00844846 bus1=p13udm27863.1.2 bus2=p13ulv90454.1.2 switch=n enabled=y phases=2 Linecode=1P_UG_AL_1/0_Brenau_2

New Line.l(r:p13udm27864-p13ulv90471) Units=km Length=0.0129457 bus1=p13udm27864.1.2 bus2=p13ulv90471.1.2 switch=n enabled=y phases=2 Linecode=1P_UG_AL_1/0_Brenau_2

New Line.l(r:p13udm27863-p13udm27864) Units=km Length=0.00975207 bus1=p13udm27863.1.2 bus2=p13udm27864.1.2 switch=n enabled=y phases=2 Linecode=1P_UG_AL_1/0_Brenau_2

New Line.l(r:p13udm27863-p13udt6467lv) Units=km Length=0.00872993 bus1=p13udt6467lv.1.2 bus2=p13udm27863.1.2 switch=n enabled=y phases=2 Linecode=1P_UG_AL_4/0_Sweetbriar_2

New Line.l(r:p13udt6468lv-p13ulv14398) Units=km Length=0.00754221 bus1=p13udt6468lv.1.2 bus2=p13ulv14398.1.2 switch=n enabled=y phases=2 Linecode=1P_UG_AL_1/0_Brenau_2

New Line.l(r:p13udm27866-p13ulv14399) Units=km Length=0.00615231 bus1=p13udm27866.1.2 bus2=p13ulv14399.1.2 switch=n enabled=y phases=2 Linecode=1P_UG_AL_1/0_Brenau_2

New Line.l(r:p13udm27867-p13ulv92165) Units=km Length=0.0081701 bus1=p13udm27867.1.2 bus2=p13ulv92165.1.2 switch=n enabled=y phases=2 Linecode=1P_UG_AL_1/0_Brenau_2

New Line.l(r:p13udm27866-p13udm27867) Units=km Length=0.00920529 bus1=p13udm27866.1.2 bus2=p13udm27867.1.2 switch=n enabled=y phases=2 Linecode=1P_UG_AL_1/0_Brenau_2

New Line.l(r:p13udm27866-p13udt6468lv) Units=km Length=0.00919944 bus1=p13udt6468lv.1.2 bus2=p13udm27866.1.2 switch=n enabled=y phases=2 Linecode=1P_UG_AL_1/0_Brenau_2

New Line.l(r:p13udm27868-p13ulv92182) Units=km Length=0.012845 bus1=p13udm27868.1.2 bus2=p13ulv92182.1.2 switch=n enabled=y phases=2 Linecode=1P_UG_AL_1/0_Brenau_2

New Line.l(r:p13udm27869-p13ulv92205) Units=km Length=0.0112057 bus1=p13udm27869.1.2 bus2=p13ulv92205.1.2 switch=n enabled=y phases=2 Linecode=1P_UG_AL_1/0_Brenau_2

New Line.l(r:p13udm27868-p13udm27869) Units=km Length=0.016950600000000003 bus1=p13udm27868.1.2 bus2=p13udm27869.1.2 switch=n enabled=y phases=2 Linecode=1P_UG_AL_1/0_Brenau_2
