New Load.load_p13ulv10050_1 conn=wye bus1=p13ulv10050.1 kV=0.12 Vminpu=0.8 Vmaxpu=1.2 model=1 kW=21.457013539307297 kvar=3.9536224367029984 Phases=1 yearly=res_kw_237_pu

New Load.load_p13ulv10050_2 conn=wye bus1=p13ulv10050.2 kV=0.12 Vminpu=0.8 Vmaxpu=1.2 model=1 kW=21.457013539307297 kvar=3.9536224367029984 Phases=1 yearly=res_kw_237_pu

New Load.load_p13ulv10051_1 conn=wye bus1=p13ulv10051.1 kV=0.12 Vminpu=0.8 Vmaxpu=1.2 model=1 kW=1.7481913686991484 kvar=0.5291433991087306 Phases=1 yearly=res_kw_8093_pu

New Load.load_p13ulv10051_2 conn=wye bus1=p13ulv10051.2 kV=0.12 Vminpu=0.8 Vmaxpu=1.2 model=1 kW=1.7481913686991484 kvar=0.5291433991087306 Phases=1 yearly=res_kw_8093_pu

New Load.load_p13ulv10055_1 conn=wye bus1=p13ulv10055.1 kV=0.12 Vminpu=0.8 Vmaxpu=1.2 model=1 kW=10.560455844174841 kvar=3.8387194432812324 Phases=1 yearly=res_kw_1261_pu

New Load.load_p13ulv10055_2 conn=wye bus1=p13ulv10055.2 kV=0.12 Vminpu=0.8 Vmaxpu=1.2 model=1 kW=10.560455844174841 kvar=3.8387194432812324 Phases=1 yearly=res_kw_1261_pu

New Load.load_p13ulv14320_1 conn=wye bus1=p13ulv14320.1 kV=0.12 Vminpu=0.8 Vmaxpu=1.2 model=1 kW=10.495302647778507 kvar=4.671404601312129 Phases=1 yearly=res_kw_2954_pu

New Load.load_p13ulv14320_2 conn=wye bus1=p13ulv14320.2 kV=0.12 Vminpu=0.8 Vmaxpu=1.2 model=1 kW=10.495302647778507 kvar=4.671404601312129 Phases=1 yearly=res_kw_2954_pu

New Load.load_p13ulv14321_1 conn=wye bus1=p13ulv14321.1 kV=0.12 Vminpu=0.8 Vmaxpu=1.2 model=1 kW=10.455169377941509 kvar=2.7126664582391973 Phases=1 yearly=res_kw_7627_pu

New Load.load_p13ulv14321_2 conn=wye bus1=p13ulv14321.2 kV=0.12 Vminpu=0.8 Vmaxpu=1.2 model=1 kW=10.455169377941509 kvar=2.7126664582391973 Phases=1 yearly=res_kw_7627_pu

New Load.load_p13ulv14322_1 conn=wye bus1=p13ulv14322.1 kV=0.12 Vminpu=0.8 Vmaxpu=1.2 model=1 kW=8.52360274233525 kvar=2.0389323973229825 Phases=1 yearly=res_kw_6906_pu

New Load.load_p13ulv14322_2 conn=wye bus1=p13ulv14322.2 kV=0.12 Vminpu=0.8 Vmaxpu=1.2 model=1 kW=8.52360274233525 kvar=2.0389323973229825 Phases=1 yearly=res_kw_6906_pu

New Load.load_p13ulv14323_1 conn=wye bus1=p13ulv14323.1 kV=0.12 Vminpu=0.8 Vmaxpu=1.2 model=1 kW=18.119607044988047 kvar=3.18819015685763 Phases=1 yearly=res_kw_8006_pu

New Load.load_p13ulv14323_2 conn=wye bus1=p13ulv14323.2 kV=0.12 Vminpu=0.8 Vmaxpu=1.2 model=1 kW=18.119607044988047 kvar=3.18819015685763 Phases=1 yearly=res_kw_8006_pu

New Load.load_p13ulv14329_1 conn=wye bus1=p13ulv14329.1 kV=0.12 Vminpu=0.8 Vmaxpu=1.2 model=1 kW=5.057928166989142 kvar=0.1883767745844791 Phases=1 yearly=res_kw_15217_pu

New Load.load_p13ulv14329_2 conn=wye bus1=p13ulv14329.2 kV=0.12 Vminpu=0.8 Vmaxpu=1.2 model=1 kW=5.057928166989142 kvar=0.1883767745844791 Phases=1 yearly=res_kw_15217_pu

New Load.load_p13ulv14330_1 conn=wye bus1=p13ulv14330.1 kV=0.12 Vminpu=0.8 Vmaxpu=1.2 model=1 kW=3.8249517279712286 kvar=0.9876552030064008 Phases=1 yearly=res_kw_3019_pu

New Load.load_p13ulv14330_2 conn=wye bus1=p13ulv14330.2 kV=0.12 Vminpu=0.8 Vmaxpu=1.2 model=1 kW=3.8249517279712286 kvar=0.9876552030064008 Phases=1 yearly=res_kw_3019_pu

New Load.load_p13ulv14331_1 conn=wye bus1=p13ulv14331.1 kV=0.12 Vminpu=0.8 Vmaxpu=1.2 model=1 kW=9.633169909207822 kvar=1.3028153557478144 Phases=1 yearly=res_kw_9830_pu

New Load.load_p13ulv14331_2 conn=wye bus1=p13ulv14331.2 kV=0.12 Vminpu=0.8 Vmaxpu=1.2 model=1 kW=9.633169909207822 kvar=1.3028153557478144 Phases=1 yearly=res_kw_9830_pu

New Load.load_p13ulv14338_1 conn=wye bus1=p13ulv14338.1 kV=0.12 Vminpu=0.8 Vmaxpu=1.2 model=1 kW=6.1588361592850465 kvar=1.650578323214133 Phases=1 yearly=res_kw_5750_pu

New Load.load_p13ulv14338_2 conn=wye bus1=p13ulv14338.2 kV=0.12 Vminpu=0.8 Vmaxpu=1.2 model=1 kW=6.1588361592850465 kvar=1.650578323214133 Phases=1 yearly=res_kw_5750_pu

New Load.load_p13ulv14339_1 conn=wye bus1=p13ulv14338.1 kV=0.12 Vminpu=0.8 Vmaxpu=1.2 model=1 kW=2.4549533772326604 kvar=0.9010542386153721 Phases=1 yearly=res_kw_6375_pu

New Load.load_p13ulv14339_2 conn=wye bus1=p13ulv14338.2 kV=0.12 Vminpu=0.8 Vmaxpu=1.2 model=1 kW=2.4549533772326604 kvar=0.9010542386153721 Phases=1 yearly=res_kw_6375_pu

New Load.load_p13ulv14342_1 conn=wye bus1=p13ulv14342.1 kV=0.12 Vminpu=0.8 Vmaxpu=1.2 model=1 kW=7.043744081036207 kvar=1.3364700722397445 Phases=1 yearly=res_kw_1142_pu

New Load.load_p13ulv14342_2 conn=wye bus1=p13ulv14342.2 kV=0.12 Vminpu=0.8 Vmaxpu=1.2 model=1 kW=7.043744081036207 kvar=1.3364700722397445 Phases=1 yearly=res_kw_1142_pu

New Load.load_p13ulv14343_1 conn=wye bus1=p13ulv14343.1 kV=0.12 Vminpu=0.8 Vmaxpu=1.2 model=1 kW=3.5094733942856577 kvar=0.7196025543323536 Phases=1 yearly=res_kw_3030_pu

New Load.load_p13ulv14343_2 conn=wye bus1=p13ulv14343.2 kV=0.12 Vminpu=0.8 Vmaxpu=1.2 model=1 kW=3.5094733942856577 kvar=0.7196025543323536 Phases=1 yearly=res_kw_3030_pu

New Load.load_p13ulv14346 conn=wye bus1=p13ulv14346.1.2.3 kV=0.48 Vminpu=0.8 Vmaxpu=1.2 model=1 kW=38.417680387024994 kvar=11.119996427590042 Phases=3 yearly=com_kw_39091_pu

New Load.load_p13ulv14347_1 conn=wye bus1=p13ulv14347.1 kV=0.12 Vminpu=0.8 Vmaxpu=1.2 model=1 kW=19.21838126538579 kvar=0.7743490882285827 Phases=1 yearly=res_kw_9087_pu

New Load.load_p13ulv14347_2 conn=wye bus1=p13ulv14347.2 kV=0.12 Vminpu=0.8 Vmaxpu=1.2 model=1 kW=19.21838126538579 kvar=0.7743490882285827 Phases=1 yearly=res_kw_9087_pu

New Load.load_p13ulv14354_1 conn=wye bus1=p13ulv14354.1 kV=0.12 Vminpu=0.8 Vmaxpu=1.2 model=1 kW=10.254924542163067 kvar=0.6961979872098483 Phases=1 yearly=com_kw_29101_pu

New Load.load_p13ulv14354_2 conn=wye bus1=p13ulv14354.2 kV=0.12 Vminpu=0.8 Vmaxpu=1.2 model=1 kW=10.254924542163067 kvar=0.6961979872098483 Phases=1 yearly=com_kw_29101_pu

New Load.load_p13ulv14355_1 conn=wye bus1=p13ulv14355.1 kV=0.12 Vminpu=0.8 Vmaxpu=1.2 model=1 kW=4.157123190804403 kvar=1.1652912236322537 Phases=1 yearly=com_kw_17799_pu

New Load.load_p13ulv14355_2 conn=wye bus1=p13ulv14355.2 kV=0.12 Vminpu=0.8 Vmaxpu=1.2 model=1 kW=4.157123190804403 kvar=1.1652912236322537 Phases=1 yearly=com_kw_17799_pu

New Load.load_p13ulv14356 conn=wye bus1=p13ulv14356.1.2.3 kV=0.48 Vminpu=0.8 Vmaxpu=1.2 model=1 kW=61.09591190004261 kvar=2.508924038019148 Phases=3 yearly=com_kw_2732_pu

New Load.load_p13ulv14357 conn=wye bus1=p13ulv14357.1.2.3 kV=0.48 Vminpu=0.8 Vmaxpu=1.2 model=1 kW=47.03783890237531 kvar=12.220182278433745 Phases=3 yearly=com_kw_39722_pu

New Load.load_p13ulv14358_1 conn=wye bus1=p13ulv14358.1 kV=0.12 Vminpu=0.8 Vmaxpu=1.2 model=1 kW=11.199225111694867 kvar=0.4981559448476882 Phases=1 yearly=res_kw_11839_pu

New Load.load_p13ulv14358_2 conn=wye bus1=p13ulv14358.2 kV=0.12 Vminpu=0.8 Vmaxpu=1.2 model=1 kW=11.199225111694867 kvar=0.4981559448476882 Phases=1 yearly=res_kw_11839_pu

New Load.load_p13ulv14359_1 conn=wye bus1=p13ulv14358.1 kV=0.12 Vminpu=0.8 Vmaxpu=1.2 model=1 kW=2.7621916140377394 kvar=1.020997998526336 Phases=1 yearly=res_kw_10231_pu

New Load.load_p13ulv14359_2 conn=wye bus1=p13ulv14358.2 kV=0.12 Vminpu=0.8 Vmaxpu=1.2 model=1 kW=2.7621916140377394 kvar=1.020997998526336 Phases=1 yearly=res_kw_10231_pu

New Load.load_p13ulv14360_1 conn=wye bus1=p13ulv14360.1 kV=0.12 Vminpu=0.8 Vmaxpu=1.2 model=1 kW=0.6031291221342301 kvar=0.36084345394425327 Phases=1 yearly=res_kw_13489_pu

New Load.load_p13ulv14360_2 conn=wye bus1=p13ulv14360.2 kV=0.12 Vminpu=0.8 Vmaxpu=1.2 model=1 kW=0.6031291221342301 kvar=0.36084345394425327 Phases=1 yearly=res_kw_13489_pu

New Load.load_p13ulv14361_1 conn=wye bus1=p13ulv14361.1 kV=0.12 Vminpu=0.8 Vmaxpu=1.2 model=1 kW=6.905727092479465 kvar=1.6733628858409957 Phases=1 yearly=res_kw_2812_pu

New Load.load_p13ulv14361_2 conn=wye bus1=p13ulv14361.2 kV=0.12 Vminpu=0.8 Vmaxpu=1.2 model=1 kW=6.905727092479465 kvar=1.6733628858409957 Phases=1 yearly=res_kw_2812_pu

New Load.load_p13ulv14362_1 conn=wye bus1=p13ulv14362.1 kV=0.12 Vminpu=0.8 Vmaxpu=1.2 model=1 kW=5.606799134517589 kvar=0.5785487953375874 Phases=1 yearly=res_kw_5619_pu

New Load.load_p13ulv14362_2 conn=wye bus1=p13ulv14362.2 kV=0.12 Vminpu=0.8 Vmaxpu=1.2 model=1 kW=5.606799134517589 kvar=0.5785487953375874 Phases=1 yearly=res_kw_5619_pu

New Load.load_p13ulv14363_1 conn=wye bus1=p13ulv14363.1 kV=0.12 Vminpu=0.8 Vmaxpu=1.2 model=1 kW=2.3053857478313646 kvar=0.13774669750229476 Phases=1 yearly=res_kw_11842_pu

New Load.load_p13ulv14363_2 conn=wye bus1=p13ulv14363.2 kV=0.12 Vminpu=0.8 Vmaxpu=1.2 model=1 kW=2.3053857478313646 kvar=0.13774669750229476 Phases=1 yearly=res_kw_11842_pu

New Load.load_p13ulv14364_1 conn=wye bus1=p13ulv14363.1 kV=0.12 Vminpu=0.8 Vmaxpu=1.2 model=1 kW=1.5430507641378848 kvar=0.48929056599908943 Phases=1 yearly=res_kw_7882_pu

New Load.load_p13ulv14364_2 conn=wye bus1=p13ulv14363.2 kV=0.12 Vminpu=0.8 Vmaxpu=1.2 model=1 kW=1.5430507641378848 kvar=0.48929056599908943 Phases=1 yearly=res_kw_7882_pu

New Load.load_p13ulv14365_1 conn=wye bus1=p13ulv14365.1 kV=0.12 Vminpu=0.8 Vmaxpu=1.2 model=1 kW=3.4522655398145456 kvar=0.9227335854628818 Phases=1 yearly=res_kw_1949_pu

New Load.load_p13ulv14365_2 conn=wye bus1=p13ulv14365.2 kV=0.12 Vminpu=0.8 Vmaxpu=1.2 model=1 kW=3.4522655398145456 kvar=0.9227335854628818 Phases=1 yearly=res_kw_1949_pu

New Load.load_p13ulv14366_1 conn=wye bus1=p13ulv14365.1 kV=0.12 Vminpu=0.8 Vmaxpu=1.2 model=1 kW=2.7061819203242354 kvar=0.9695786012800355 Phases=1 yearly=res_kw_6697_pu

New Load.load_p13ulv14366_2 conn=wye bus1=p13ulv14365.2 kV=0.12 Vminpu=0.8 Vmaxpu=1.2 model=1 kW=2.7061819203242354 kvar=0.9695786012800355 Phases=1 yearly=res_kw_6697_pu

New Load.load_p13ulv14367_1 conn=wye bus1=p13ulv14367.1 kV=0.12 Vminpu=0.8 Vmaxpu=1.2 model=1 kW=4.525303114747101 kvar=0.4722687720205482 Phases=1 yearly=res_kw_1335_pu

New Load.load_p13ulv14367_2 conn=wye bus1=p13ulv14367.2 kV=0.12 Vminpu=0.8 Vmaxpu=1.2 model=1 kW=4.525303114747101 kvar=0.4722687720205482 Phases=1 yearly=res_kw_1335_pu

New Load.load_p13ulv14368_1 conn=wye bus1=p13ulv14368.1 kV=0.12 Vminpu=0.8 Vmaxpu=1.2 model=1 kW=6.395514285789837 kvar=0.9522029171822473 Phases=1 yearly=res_kw_12674_pu

New Load.load_p13ulv14368_2 conn=wye bus1=p13ulv14368.2 kV=0.12 Vminpu=0.8 Vmaxpu=1.2 model=1 kW=6.395514285789837 kvar=0.9522029171822473 Phases=1 yearly=res_kw_12674_pu

New Load.load_p13ulv14369_1 conn=wye bus1=p13ulv14369.1 kV=0.12 Vminpu=0.8 Vmaxpu=1.2 model=1 kW=3.648018597217029 kvar=0.20014212396890727 Phases=1 yearly=res_kw_12143_pu

New Load.load_p13ulv14369_2 conn=wye bus1=p13ulv14369.2 kV=0.12 Vminpu=0.8 Vmaxpu=1.2 model=1 kW=3.648018597217029 kvar=0.20014212396890727 Phases=1 yearly=res_kw_12143_pu

New Load.load_p13ulv14370_1 conn=wye bus1=p13ulv14370.1 kV=0.12 Vminpu=0.8 Vmaxpu=1.2 model=1 kW=3.5127978636027604 kvar=0.9794275484237299 Phases=1 yearly=res_kw_12216_pu

New Load.load_p13ulv14370_2 conn=wye bus1=p13ulv14370.2 kV=0.12 Vminpu=0.8 Vmaxpu=1.2 model=1 kW=3.5127978636027604 kvar=0.9794275484237299 Phases=1 yearly=res_kw_12216_pu

New Load.load_p13ulv14371_1 conn=wye bus1=p13ulv14371.1 kV=0.12 Vminpu=0.8 Vmaxpu=1.2 model=1 kW=3.3779188875204915 kvar=0.1991516492044874 Phases=1 yearly=res_kw_14063_pu

New Load.load_p13ulv14371_2 conn=wye bus1=p13ulv14371.2 kV=0.12 Vminpu=0.8 Vmaxpu=1.2 model=1 kW=3.3779188875204915 kvar=0.1991516492044874 Phases=1 yearly=res_kw_14063_pu

New Load.load_p13ulv14372_1 conn=wye bus1=p13ulv14372.1 kV=0.12 Vminpu=0.8 Vmaxpu=1.2 model=1 kW=1.3684778564404458 kvar=0.47268814717667457 Phases=1 yearly=res_kw_8961_pu

New Load.load_p13ulv14372_2 conn=wye bus1=p13ulv14372.2 kV=0.12 Vminpu=0.8 Vmaxpu=1.2 model=1 kW=1.3684778564404458 kvar=0.47268814717667457 Phases=1 yearly=res_kw_8961_pu

New Load.load_p13ulv14373_1 conn=wye bus1=p13ulv14373.1 kV=0.12 Vminpu=0.8 Vmaxpu=1.2 model=1 kW=6.430620543269981 kvar=1.2183460596356448 Phases=1 yearly=res_kw_940_pu

New Load.load_p13ulv14373_2 conn=wye bus1=p13ulv14373.2 kV=0.12 Vminpu=0.8 Vmaxpu=1.2 model=1 kW=6.430620543269981 kvar=1.2183460596356448 Phases=1 yearly=res_kw_940_pu

New Load.load_p13ulv14374_1 conn=wye bus1=p13ulv14374.1 kV=0.12 Vminpu=0.8 Vmaxpu=1.2 model=1 kW=3.5127978636027604 kvar=0.9794275484237299 Phases=1 yearly=res_kw_12216_pu

New Load.load_p13ulv14374_2 conn=wye bus1=p13ulv14374.2 kV=0.12 Vminpu=0.8 Vmaxpu=1.2 model=1 kW=3.5127978636027604 kvar=0.9794275484237299 Phases=1 yearly=res_kw_12216_pu

New Load.load_p13ulv14375_1 conn=wye bus1=p13ulv14375.1 kV=0.12 Vminpu=0.8 Vmaxpu=1.2 model=1 kW=2.14720038589496 kvar=0.8148360695243748 Phases=1 yearly=res_kw_13015_pu

New Load.load_p13ulv14375_2 conn=wye bus1=p13ulv14375.2 kV=0.12 Vminpu=0.8 Vmaxpu=1.2 model=1 kW=2.14720038589496 kvar=0.8148360695243748 Phases=1 yearly=res_kw_13015_pu

New Load.load_p13ulv14376_1 conn=wye bus1=p13ulv14376.1 kV=0.12 Vminpu=0.8 Vmaxpu=1.2 model=1 kW=8.816494550230614 kvar=2.307932612358607 Phases=1 yearly=res_kw_9223_pu

New Load.load_p13ulv14376_2 conn=wye bus1=p13ulv14376.2 kV=0.12 Vminpu=0.8 Vmaxpu=1.2 model=1 kW=8.816494550230614 kvar=2.307932612358607 Phases=1 yearly=res_kw_9223_pu

New Load.load_p13ulv14377_1 conn=wye bus1=p13ulv14377.1 kV=0.12 Vminpu=0.8 Vmaxpu=1.2 model=1 kW=3.7716418529610256 kvar=1.3604460519422514 Phases=1 yearly=res_kw_12541_pu

New Load.load_p13ulv14377_2 conn=wye bus1=p13ulv14377.2 kV=0.12 Vminpu=0.8 Vmaxpu=1.2 model=1 kW=3.7716418529610256 kvar=1.3604460519422514 Phases=1 yearly=res_kw_12541_pu

New Load.load_p13ulv14378_1 conn=wye bus1=p13ulv14378.1 kV=0.12 Vminpu=0.8 Vmaxpu=1.2 model=1 kW=3.701066610860344 kvar=0.8430876680366985 Phases=1 yearly=res_kw_10358_pu

New Load.load_p13ulv14378_2 conn=wye bus1=p13ulv14378.2 kV=0.12 Vminpu=0.8 Vmaxpu=1.2 model=1 kW=3.701066610860344 kvar=0.8430876680366985 Phases=1 yearly=res_kw_10358_pu

New Load.load_p13ulv14379_1 conn=wye bus1=p13ulv14379.1 kV=0.12 Vminpu=0.8 Vmaxpu=1.2 model=1 kW=2.341429573419499 kvar=0.5829118246424336 Phases=1 yearly=res_kw_12744_pu

New Load.load_p13ulv14379_2 conn=wye bus1=p13ulv14379.2 kV=0.12 Vminpu=0.8 Vmaxpu=1.2 model=1 kW=2.341429573419499 kvar=0.5829118246424336 Phases=1 yearly=res_kw_12744_pu

New Load.load_p13ulv14380_1 conn=wye bus1=p13ulv14380.1 kV=0.12 Vminpu=0.8 Vmaxpu=1.2 model=1 kW=11.184091588406478 kvar=0.37458766460888204 Phases=1 yearly=res_kw_8058_pu

New Load.load_p13ulv14380_2 conn=wye bus1=p13ulv14380.2 kV=0.12 Vminpu=0.8 Vmaxpu=1.2 model=1 kW=11.184091588406478 kvar=0.37458766460888204 Phases=1 yearly=res_kw_8058_pu

New Load.load_p13ulv14381_1 conn=wye bus1=p13ulv14381.1 kV=0.12 Vminpu=0.8 Vmaxpu=1.2 model=1 kW=2.2112727173478297 kvar=0.5308516080593575 Phases=1 yearly=res_kw_9776_pu

New Load.load_p13ulv14381_2 conn=wye bus1=p13ulv14381.2 kV=0.12 Vminpu=0.8 Vmaxpu=1.2 model=1 kW=2.2112727173478297 kvar=0.5308516080593575 Phases=1 yearly=res_kw_9776_pu

New Load.load_p13ulv14382_1 conn=wye bus1=p13ulv14382.1 kV=0.12 Vminpu=0.8 Vmaxpu=1.2 model=1 kW=7.319480513177298 kvar=0.7684576566499586 Phases=1 yearly=res_kw_10588_pu

New Load.load_p13ulv14382_2 conn=wye bus1=p13ulv14382.2 kV=0.12 Vminpu=0.8 Vmaxpu=1.2 model=1 kW=7.319480513177298 kvar=0.7684576566499586 Phases=1 yearly=res_kw_10588_pu

New Load.load_p13ulv14383_1 conn=wye bus1=p13ulv14383.1 kV=0.12 Vminpu=0.8 Vmaxpu=1.2 model=1 kW=2.66933020275041 kvar=0.7705928269131836 Phases=1 yearly=res_kw_1187_pu

New Load.load_p13ulv14383_2 conn=wye bus1=p13ulv14383.2 kV=0.12 Vminpu=0.8 Vmaxpu=1.2 model=1 kW=2.66933020275041 kvar=0.7705928269131836 Phases=1 yearly=res_kw_1187_pu

New Load.load_p13ulv14384_1 conn=wye bus1=p13ulv14384.1 kV=0.12 Vminpu=0.8 Vmaxpu=1.2 model=1 kW=3.5127978636027604 kvar=0.9794275484237299 Phases=1 yearly=res_kw_12216_pu

New Load.load_p13ulv14384_2 conn=wye bus1=p13ulv14384.2 kV=0.12 Vminpu=0.8 Vmaxpu=1.2 model=1 kW=3.5127978636027604 kvar=0.9794275484237299 Phases=1 yearly=res_kw_12216_pu

New Load.load_p13ulv14385_1 conn=wye bus1=p13ulv14385.1 kV=0.12 Vminpu=0.8 Vmaxpu=1.2 model=1 kW=6.5375014318533395 kvar=1.9856255038165627 Phases=1 yearly=res_kw_13610_pu

New Load.load_p13ulv14385_2 conn=wye bus1=p13ulv14385.2 kV=0.12 Vminpu=0.8 Vmaxpu=1.2 model=1 kW=6.5375014318533395 kvar=1.9856255038165627 Phases=1 yearly=res_kw_13610_pu

New Load.load_p13ulv14386_1 conn=wye bus1=p13ulv14386.1 kV=0.12 Vminpu=0.8 Vmaxpu=1.2 model=1 kW=29.73526682385479 kvar=9.379668547044137 Phases=1 yearly=res_kw_10644_pu

New Load.load_p13ulv14386_2 conn=wye bus1=p13ulv14386.2 kV=0.12 Vminpu=0.8 Vmaxpu=1.2 model=1 kW=29.73526682385479 kvar=9.379668547044137 Phases=1 yearly=res_kw_10644_pu

New Load.load_p13ulv14387 conn=wye bus1=p13ulv14387.1.2.3 kV=0.48 Vminpu=0.8 Vmaxpu=1.2 model=1 kW=75.11522837591377 kvar=15.379021379307368 Phases=3 yearly=res_kw_10383_pu

New Load.load_p13ulv14388_1 conn=wye bus1=p13ulv14388.1 kV=0.12 Vminpu=0.8 Vmaxpu=1.2 model=1 kW=18.169375863244227 kvar=3.0091963475827765 Phases=1 yearly=res_kw_8902_pu

New Load.load_p13ulv14388_2 conn=wye bus1=p13ulv14388.2 kV=0.12 Vminpu=0.8 Vmaxpu=1.2 model=1 kW=18.169375863244227 kvar=3.0091963475827765 Phases=1 yearly=res_kw_8902_pu

New Load.load_p13ulv14389_1 conn=wye bus1=p13ulv14389.1 kV=0.12 Vminpu=0.8 Vmaxpu=1.2 model=1 kW=6.395514285789837 kvar=0.9522029171822473 Phases=1 yearly=res_kw_12674_pu

New Load.load_p13ulv14389_2 conn=wye bus1=p13ulv14389.2 kV=0.12 Vminpu=0.8 Vmaxpu=1.2 model=1 kW=6.395514285789837 kvar=0.9522029171822473 Phases=1 yearly=res_kw_12674_pu

New Load.load_p13ulv14390_1 conn=wye bus1=p13ulv14389.1 kV=0.12 Vminpu=0.8 Vmaxpu=1.2 model=1 kW=4.452898132982227 kvar=0.9748700855104566 Phases=1 yearly=res_kw_10113_pu

New Load.load_p13ulv14390_2 conn=wye bus1=p13ulv14389.2 kV=0.12 Vminpu=0.8 Vmaxpu=1.2 model=1 kW=4.452898132982227 kvar=0.9748700855104566 Phases=1 yearly=res_kw_10113_pu

New Load.load_p13ulv14391_1 conn=wye bus1=p13ulv14391.1 kV=0.12 Vminpu=0.8 Vmaxpu=1.2 model=1 kW=2.335883012150252 kvar=0.49964151939037904 Phases=1 yearly=res_kw_13948_pu

New Load.load_p13ulv14391_2 conn=wye bus1=p13ulv14391.2 kV=0.12 Vminpu=0.8 Vmaxpu=1.2 model=1 kW=2.335883012150252 kvar=0.49964151939037904 Phases=1 yearly=res_kw_13948_pu

New Load.load_p13ulv14392_1 conn=wye bus1=p13ulv14392.1 kV=0.12 Vminpu=0.8 Vmaxpu=1.2 model=1 kW=2.5835858446664703 kvar=0.8558039398992797 Phases=1 yearly=res_kw_2059_pu

New Load.load_p13ulv14392_2 conn=wye bus1=p13ulv14392.2 kV=0.12 Vminpu=0.8 Vmaxpu=1.2 model=1 kW=2.5835858446664703 kvar=0.8558039398992797 Phases=1 yearly=res_kw_2059_pu

New Load.load_p13ulv14393_1 conn=wye bus1=p13ulv14393.1 kV=0.12 Vminpu=0.8 Vmaxpu=1.2 model=1 kW=3.612062256076781 kvar=0.24667026995329785 Phases=1 yearly=res_kw_14248_pu

New Load.load_p13ulv14393_2 conn=wye bus1=p13ulv14393.2 kV=0.12 Vminpu=0.8 Vmaxpu=1.2 model=1 kW=3.612062256076781 kvar=0.24667026995329785 Phases=1 yearly=res_kw_14248_pu

New Load.load_p13ulv14394_1 conn=wye bus1=p13ulv14393.1 kV=0.12 Vminpu=0.8 Vmaxpu=1.2 model=1 kW=1.811785045781775 kvar=0.8857425190479955 Phases=1 yearly=res_kw_409_pu

New Load.load_p13ulv14394_2 conn=wye bus1=p13ulv14393.2 kV=0.12 Vminpu=0.8 Vmaxpu=1.2 model=1 kW=1.811785045781775 kvar=0.8857425190479955 Phases=1 yearly=res_kw_409_pu

New Load.load_p13ulv14395_1 conn=wye bus1=p13ulv14395.1 kV=0.12 Vminpu=0.8 Vmaxpu=1.2 model=1 kW=3.8249517279712286 kvar=0.9876552030064008 Phases=1 yearly=res_kw_3019_pu

New Load.load_p13ulv14395_2 conn=wye bus1=p13ulv14395.2 kV=0.12 Vminpu=0.8 Vmaxpu=1.2 model=1 kW=3.8249517279712286 kvar=0.9876552030064008 Phases=1 yearly=res_kw_3019_pu

New Load.load_p13ulv14396_1 conn=wye bus1=p13ulv14396.1 kV=0.12 Vminpu=0.8 Vmaxpu=1.2 model=1 kW=2.6687584097416917 kvar=0.2644243787085743 Phases=1 yearly=res_kw_4011_pu

New Load.load_p13ulv14396_2 conn=wye bus1=p13ulv14396.2 kV=0.12 Vminpu=0.8 Vmaxpu=1.2 model=1 kW=2.6687584097416917 kvar=0.2644243787085743 Phases=1 yearly=res_kw_4011_pu

New Load.load_p13ulv14397_1 conn=wye bus1=p13ulv14397.1 kV=0.12 Vminpu=0.8 Vmaxpu=1.2 model=1 kW=2.7621916140377394 kvar=1.020997998526336 Phases=1 yearly=res_kw_10231_pu

New Load.load_p13ulv14397_2 conn=wye bus1=p13ulv14397.2 kV=0.12 Vminpu=0.8 Vmaxpu=1.2 model=1 kW=2.7621916140377394 kvar=1.020997998526336 Phases=1 yearly=res_kw_10231_pu

New Load.load_p13ulv14398_1 conn=wye bus1=p13ulv14398.1 kV=0.12 Vminpu=0.8 Vmaxpu=1.2 model=1 kW=5.2844394308809175 kvar=1.0522712324848236 Phases=1 yearly=res_kw_4549_pu

New Load.load_p13ulv14398_2 conn=wye bus1=p13ulv14398.2 kV=0.12 Vminpu=0.8 Vmaxpu=1.2 model=1 kW=5.2844394308809175 kvar=1.0522712324848236 Phases=1 yearly=res_kw_4549_pu

New Load.load_p13ulv14399_1 conn=wye bus1=p13ulv14399.1 kV=0.12 Vminpu=0.8 Vmaxpu=1.2 model=1 kW=3.648018597217029 kvar=0.20014212396890727 Phases=1 yearly=res_kw_12143_pu

New Load.load_p13ulv14399_2 conn=wye bus1=p13ulv14399.2 kV=0.12 Vminpu=0.8 Vmaxpu=1.2 model=1 kW=3.648018597217029 kvar=0.20014212396890727 Phases=1 yearly=res_kw_12143_pu

New Load.load_p13ulv14645 conn=wye bus1=p13ulv14645.1.2.3 kV=0.48 Vminpu=0.8 Vmaxpu=1.2 model=1 kW=22.864962815735566 kvar=6.132483600202687 Phases=3 yearly=com_kw_16234_pu

New Load.load_p13ulv14652 conn=wye bus1=p13ulv14652.1.2.3 kV=0.48 Vminpu=0.8 Vmaxpu=1.2 model=1 kW=35.96733783155536 kvar=12.021311092444984 Phases=3 yearly=com_kw_34184_pu

New Load.load_p13ulv14653 conn=wye bus1=p13ulv14653.1.2.3 kV=0.48 Vminpu=0.8 Vmaxpu=1.2 model=1 kW=34.12924079138741 kvar=9.243694446413683 Phases=3 yearly=com_kw_39984_pu

New Load.load_p13ulv14654 conn=wye bus1=p13ulv14654.1.2.3 kV=0.48 Vminpu=0.8 Vmaxpu=1.2 model=1 kW=104.76876666583581 kvar=15.076406008128084 Phases=3 yearly=res_kw_14008_pu

New Load.load_p13ulv14655 conn=wye bus1=p13ulv14655.1.2.3 kV=0.48 Vminpu=0.8 Vmaxpu=1.2 model=1 kW=33.14902278594878 kvar=9.230405910520478 Phases=3 yearly=com_kw_29045_pu

New Load.load_p13ulv14656 conn=wye bus1=p13ulv14656.1.2.3 kV=0.48 Vminpu=0.8 Vmaxpu=1.2 model=1 kW=38.014909184217544 kvar=9.320758444531972 Phases=3 yearly=com_kw_18131_pu

New Load.load_p13ulv14657_1 conn=wye bus1=p13ulv14657.1 kV=0.12 Vminpu=0.8 Vmaxpu=1.2 model=1 kW=5.7965198206506185 kvar=1.3170178860793145 Phases=1 yearly=com_kw_31492_pu

New Load.load_p13ulv14657_2 conn=wye bus1=p13ulv14657.2 kV=0.12 Vminpu=0.8 Vmaxpu=1.2 model=1 kW=5.7965198206506185 kvar=1.3170178860793145 Phases=1 yearly=com_kw_31492_pu

New Load.load_p13ulv14658 conn=wye bus1=p13ulv14658.1.2.3 kV=0.48 Vminpu=0.8 Vmaxpu=1.2 model=1 kW=30.331422477929678 kvar=6.549187448824402 Phases=3 yearly=com_kw_1775_pu

New Load.load_p13ulv14659 conn=wye bus1=p13ulv14659.1.2.3 kV=0.48 Vminpu=0.8 Vmaxpu=1.2 model=1 kW=27.154936712055743 kvar=6.849373254143182 Phases=3 yearly=com_kw_17236_pu

New Load.load_p13ulv17012_1 conn=wye bus1=p13ulv17012.1 kV=0.12 Vminpu=0.8 Vmaxpu=1.2 model=1 kW=7.481658889946317 kvar=1.7972741267145178 Phases=1 yearly=com_kw_17286_pu

New Load.load_p13ulv17012_2 conn=wye bus1=p13ulv17012.2 kV=0.12 Vminpu=0.8 Vmaxpu=1.2 model=1 kW=7.481658889946317 kvar=1.7972741267145178 Phases=1 yearly=com_kw_17286_pu

New Load.load_p13ulv17013 conn=wye bus1=p13ulv17013.1.2.3 kV=0.48 Vminpu=0.8 Vmaxpu=1.2 model=1 kW=54.70638673510803 kvar=2.1364060641507705 Phases=3 yearly=com_kw_1555_pu

New Load.load_p13ulv17015_1 conn=wye bus1=p13ulv17015.1 kV=0.12 Vminpu=0.8 Vmaxpu=1.2 model=1 kW=6.905727092479465 kvar=1.6733628858409957 Phases=1 yearly=res_kw_2812_pu

New Load.load_p13ulv17015_2 conn=wye bus1=p13ulv17015.2 kV=0.12 Vminpu=0.8 Vmaxpu=1.2 model=1 kW=6.905727092479465 kvar=1.6733628858409957 Phases=1 yearly=res_kw_2812_pu

New Load.load_p13ulv17016_1 conn=wye bus1=p13ulv17016.1 kV=0.12 Vminpu=0.8 Vmaxpu=1.2 model=1 kW=3.3199481038518184 kvar=0.3250298900750565 Phases=1 yearly=res_kw_7935_pu

New Load.load_p13ulv17016_2 conn=wye bus1=p13ulv17016.2 kV=0.12 Vminpu=0.8 Vmaxpu=1.2 model=1 kW=3.3199481038518184 kvar=0.3250298900750565 Phases=1 yearly=res_kw_7935_pu

New Load.load_p13ulv17017_1 conn=wye bus1=p13ulv17016.1 kV=0.12 Vminpu=0.8 Vmaxpu=1.2 model=1 kW=3.1210420493769755 kvar=0.7776598177702176 Phases=1 yearly=res_kw_14970_pu

New Load.load_p13ulv17017_2 conn=wye bus1=p13ulv17016.2 kV=0.12 Vminpu=0.8 Vmaxpu=1.2 model=1 kW=3.1210420493769755 kvar=0.7776598177702176 Phases=1 yearly=res_kw_14970_pu

New Load.load_p13ulv17018_1 conn=wye bus1=p13ulv17018.1 kV=0.12 Vminpu=0.8 Vmaxpu=1.2 model=1 kW=6.810264946703057 kvar=1.5608696201415955 Phases=1 yearly=com_kw_41337_pu

New Load.load_p13ulv17018_2 conn=wye bus1=p13ulv17018.2 kV=0.12 Vminpu=0.8 Vmaxpu=1.2 model=1 kW=6.810264946703057 kvar=1.5608696201415955 Phases=1 yearly=com_kw_41337_pu

New Load.load_p13ulv17019_1 conn=wye bus1=p13ulv17019.1 kV=0.12 Vminpu=0.8 Vmaxpu=1.2 model=1 kW=11.143597712447542 kvar=0.9571948637251774 Phases=1 yearly=res_kw_14803_pu

New Load.load_p13ulv17019_2 conn=wye bus1=p13ulv17019.2 kV=0.12 Vminpu=0.8 Vmaxpu=1.2 model=1 kW=11.143597712447542 kvar=0.9571948637251774 Phases=1 yearly=res_kw_14803_pu

New Load.load_p13ulv17020_1 conn=wye bus1=p13ulv17020.1 kV=0.12 Vminpu=0.8 Vmaxpu=1.2 model=1 kW=7.2870864655894065 kvar=1.4968742743211143 Phases=1 yearly=res_kw_519_pu

New Load.load_p13ulv17020_2 conn=wye bus1=p13ulv17020.2 kV=0.12 Vminpu=0.8 Vmaxpu=1.2 model=1 kW=7.2870864655894065 kvar=1.4968742743211143 Phases=1 yearly=res_kw_519_pu

New Load.load_p13ulv17021_1 conn=wye bus1=p13ulv17021.1 kV=0.12 Vminpu=0.8 Vmaxpu=1.2 model=1 kW=6.020731787538052 kvar=0.9897429487908294 Phases=1 yearly=com_kw_31518_pu

New Load.load_p13ulv17021_2 conn=wye bus1=p13ulv17021.2 kV=0.12 Vminpu=0.8 Vmaxpu=1.2 model=1 kW=6.020731787538052 kvar=0.9897429487908294 Phases=1 yearly=com_kw_31518_pu

New Load.load_p13ulv17022_1 conn=wye bus1=p13ulv17022.1 kV=0.12 Vminpu=0.8 Vmaxpu=1.2 model=1 kW=0.5593253089334367 kvar=0.3761927367965328 Phases=1 yearly=res_kw_11662_pu

New Load.load_p13ulv17022_2 conn=wye bus1=p13ulv17022.2 kV=0.12 Vminpu=0.8 Vmaxpu=1.2 model=1 kW=0.5593253089334367 kvar=0.3761927367965328 Phases=1 yearly=res_kw_11662_pu

New Load.load_p13ulv17023_1 conn=wye bus1=p13ulv17023.1 kV=0.12 Vminpu=0.8 Vmaxpu=1.2 model=1 kW=5.594207609666512 kvar=0.29618755483083115 Phases=1 yearly=res_kw_13829_pu

New Load.load_p13ulv17023_2 conn=wye bus1=p13ulv17023.2 kV=0.12 Vminpu=0.8 Vmaxpu=1.2 model=1 kW=5.594207609666512 kvar=0.29618755483083115 Phases=1 yearly=res_kw_13829_pu

New Load.load_p13ulv17024_1 conn=wye bus1=p13ulv17024.1 kV=0.12 Vminpu=0.8 Vmaxpu=1.2 model=1 kW=16.177047204461267 kvar=3.816380800928478 Phases=1 yearly=res_kw_14693_pu

New Load.load_p13ulv17024_2 conn=wye bus1=p13ulv17024.2 kV=0.12 Vminpu=0.8 Vmaxpu=1.2 model=1 kW=16.177047204461267 kvar=3.816380800928478 Phases=1 yearly=res_kw_14693_pu

New Load.load_p13ulv17034_1 conn=wye bus1=p13ulv17034.1 kV=0.12 Vminpu=0.8 Vmaxpu=1.2 model=1 kW=1.6218310598711032 kvar=0.6386635421756082 Phases=1 yearly=res_kw_12148_pu

New Load.load_p13ulv17034_2 conn=wye bus1=p13ulv17034.2 kV=0.12 Vminpu=0.8 Vmaxpu=1.2 model=1 kW=1.6218310598711032 kvar=0.6386635421756082 Phases=1 yearly=res_kw_12148_pu

New Load.load_p13ulv17035_1 conn=wye bus1=p13ulv17035.1 kV=0.12 Vminpu=0.8 Vmaxpu=1.2 model=1 kW=2.7621916140377394 kvar=1.020997998526336 Phases=1 yearly=res_kw_10231_pu

New Load.load_p13ulv17035_2 conn=wye bus1=p13ulv17035.2 kV=0.12 Vminpu=0.8 Vmaxpu=1.2 model=1 kW=2.7621916140377394 kvar=1.020997998526336 Phases=1 yearly=res_kw_10231_pu

New Load.load_p13ulv17036_1 conn=wye bus1=p13ulv17036.1 kV=0.12 Vminpu=0.8 Vmaxpu=1.2 model=1 kW=3.965811262619282 kvar=1.179887620308166 Phases=1 yearly=res_kw_3277_pu

New Load.load_p13ulv17036_2 conn=wye bus1=p13ulv17036.2 kV=0.12 Vminpu=0.8 Vmaxpu=1.2 model=1 kW=3.965811262619282 kvar=1.179887620308166 Phases=1 yearly=res_kw_3277_pu

New Load.load_p13ulv17037_1 conn=wye bus1=p13ulv17037.1 kV=0.12 Vminpu=0.8 Vmaxpu=1.2 model=1 kW=3.3741527372688265 kvar=1.0196590813034139 Phases=1 yearly=res_kw_3839_pu

New Load.load_p13ulv17037_2 conn=wye bus1=p13ulv17037.2 kV=0.12 Vminpu=0.8 Vmaxpu=1.2 model=1 kW=3.3741527372688265 kvar=1.0196590813034139 Phases=1 yearly=res_kw_3839_pu

New Load.load_p13ulv17038_1 conn=wye bus1=p13ulv17038.1 kV=0.12 Vminpu=0.8 Vmaxpu=1.2 model=1 kW=1.7308065212059567 kvar=0.42616346958952384 Phases=1 yearly=com_kw_41505_pu

New Load.load_p13ulv17038_2 conn=wye bus1=p13ulv17038.2 kV=0.12 Vminpu=0.8 Vmaxpu=1.2 model=1 kW=1.7308065212059567 kvar=0.42616346958952384 Phases=1 yearly=com_kw_41505_pu

New Load.load_p13ulv17039_1 conn=wye bus1=p13ulv17039.1 kV=0.12 Vminpu=0.8 Vmaxpu=1.2 model=1 kW=3.104336239022225 kvar=1.4168437856222231 Phases=1 yearly=res_kw_12295_pu

New Load.load_p13ulv17039_2 conn=wye bus1=p13ulv17039.2 kV=0.12 Vminpu=0.8 Vmaxpu=1.2 model=1 kW=3.104336239022225 kvar=1.4168437856222231 Phases=1 yearly=res_kw_12295_pu

New Load.load_p13ulv17040_1 conn=wye bus1=p13ulv17040.1 kV=0.12 Vminpu=0.8 Vmaxpu=1.2 model=1 kW=3.0054702702342664 kvar=1.4071716672438954 Phases=1 yearly=res_kw_1249_pu

New Load.load_p13ulv17040_2 conn=wye bus1=p13ulv17040.2 kV=0.12 Vminpu=0.8 Vmaxpu=1.2 model=1 kW=3.0054702702342664 kvar=1.4071716672438954 Phases=1 yearly=res_kw_1249_pu

New Load.load_p13ulv17041_1 conn=wye bus1=p13ulv17041.1 kV=0.12 Vminpu=0.8 Vmaxpu=1.2 model=1 kW=4.525303114747101 kvar=0.4722687720205482 Phases=1 yearly=res_kw_1335_pu

New Load.load_p13ulv17041_2 conn=wye bus1=p13ulv17041.2 kV=0.12 Vminpu=0.8 Vmaxpu=1.2 model=1 kW=4.525303114747101 kvar=0.4722687720205482 Phases=1 yearly=res_kw_1335_pu

New Load.load_p13ulv17042_1 conn=wye bus1=p13ulv17042.1 kV=0.12 Vminpu=0.8 Vmaxpu=1.2 model=1 kW=12.114671954573323 kvar=2.7819402774514588 Phases=1 yearly=res_kw_3874_pu

New Load.load_p13ulv17042_2 conn=wye bus1=p13ulv17042.2 kV=0.12 Vminpu=0.8 Vmaxpu=1.2 model=1 kW=12.114671954573323 kvar=2.7819402774514588 Phases=1 yearly=res_kw_3874_pu

New Load.load_p13ulv17043_1 conn=wye bus1=p13ulv17043.1 kV=0.12 Vminpu=0.8 Vmaxpu=1.2 model=1 kW=4.055766634676983 kvar=1.199977165248086 Phases=1 yearly=com_kw_19714_pu

New Load.load_p13ulv17043_2 conn=wye bus1=p13ulv17043.2 kV=0.12 Vminpu=0.8 Vmaxpu=1.2 model=1 kW=4.055766634676983 kvar=1.199977165248086 Phases=1 yearly=com_kw_19714_pu

New Load.load_p13ulv17044_1 conn=wye bus1=p13ulv17044.1 kV=0.12 Vminpu=0.8 Vmaxpu=1.2 model=1 kW=11.91557519055491 kvar=1.8720293465317184 Phases=1 yearly=res_kw_10108_pu
