New Load.load_p13ulv3440_1 conn=wye bus1=p13ulv3440.1 kV=0.12 Vminpu=0.8 Vmaxpu=1.2 model=1 kW=4.055766634676983 kvar=1.199977165248086 Phases=1 yearly=com_kw_19714_pu

New Load.load_p13ulv3440_2 conn=wye bus1=p13ulv3440.2 kV=0.12 Vminpu=0.8 Vmaxpu=1.2 model=1 kW=4.055766634676983 kvar=1.199977165248086 Phases=1 yearly=com_kw_19714_pu

New Load.load_p13ulv3441_1 conn=wye bus1=p13ulv3441.1 kV=0.12 Vminpu=0.8 Vmaxpu=1.2 model=1 kW=5.352305861788737 kvar=1.078614934399192 Phases=1 yearly=res_kw_2503_pu

New Load.load_p13ulv3441_2 conn=wye bus1=p13ulv3441.2 kV=0.12 Vminpu=0.8 Vmaxpu=1.2 model=1 kW=5.352305861788737 kvar=1.078614934399192 Phases=1 yearly=res_kw_2503_pu

New Load.load_p13ulv3442 conn=wye bus1=p13ulv3442.1.2.3 kV=0.48 Vminpu=0.8 Vmaxpu=1.2 model=1 kW=67.33607444645513 kvar=25.45026703266676 Phases=3 yearly=res_kw_944_pu

New Load.load_p13ulv3443 conn=wye bus1=p13ulv3443.1.2.3 kV=0.48 Vminpu=0.8 Vmaxpu=1.2 model=1 kW=22.476147195409453 kvar=6.180374655659762 Phases=3 yearly=com_kw_39998_pu

New Load.load_p13ulv3444 conn=wye bus1=p13ulv3443.1.2.3 kV=0.48 Vminpu=0.8 Vmaxpu=1.2 model=1 kW=24.209120388106733 kvar=6.512500785618637 Phases=3 yearly=com_kw_19420_pu

New Load.load_p13ulv3445 conn=wye bus1=p13ulv3445.1.2.3 kV=0.48 Vminpu=0.8 Vmaxpu=1.2 model=1 kW=43.26522971706406 kvar=11.650804405281649 Phases=3 yearly=com_kw_35603_pu

New Load.load_p13ulv3446_1 conn=wye bus1=p13ulv3446.1 kV=0.12 Vminpu=0.8 Vmaxpu=1.2 model=1 kW=6.694721426154383 kvar=1.5769028070080264 Phases=1 yearly=com_kw_1667_pu

New Load.load_p13ulv3446_2 conn=wye bus1=p13ulv3446.2 kV=0.12 Vminpu=0.8 Vmaxpu=1.2 model=1 kW=6.694721426154383 kvar=1.5769028070080264 Phases=1 yearly=com_kw_1667_pu

New Load.load_p13ulv3447_1 conn=wye bus1=p13ulv3447.1 kV=0.12 Vminpu=0.8 Vmaxpu=1.2 model=1 kW=4.487592234346106 kvar=0.992497438289527 Phases=1 yearly=res_kw_10783_pu

New Load.load_p13ulv3447_2 conn=wye bus1=p13ulv3447.2 kV=0.12 Vminpu=0.8 Vmaxpu=1.2 model=1 kW=4.487592234346106 kvar=0.992497438289527 Phases=1 yearly=res_kw_10783_pu

New Load.load_p13ulv3448_1 conn=wye bus1=p13ulv3448.1 kV=0.12 Vminpu=0.8 Vmaxpu=1.2 model=1 kW=5.675652808285769 kvar=1.093081053561056 Phases=1 yearly=res_kw_3226_pu

New Load.load_p13ulv3448_2 conn=wye bus1=p13ulv3448.2 kV=0.12 Vminpu=0.8 Vmaxpu=1.2 model=1 kW=5.675652808285769 kvar=1.093081053561056 Phases=1 yearly=res_kw_3226_pu

New Load.load_p13ulv3450_1 conn=wye bus1=p13ulv3450.1 kV=0.12 Vminpu=0.8 Vmaxpu=1.2 model=1 kW=22.12280202516119 kvar=4.492669783950823 Phases=1 yearly=res_kw_8421_pu

New Load.load_p13ulv3450_2 conn=wye bus1=p13ulv3450.2 kV=0.12 Vminpu=0.8 Vmaxpu=1.2 model=1 kW=22.12280202516119 kvar=4.492669783950823 Phases=1 yearly=res_kw_8421_pu

New Load.load_p13ulv3451_1 conn=wye bus1=p13ulv3451.1 kV=0.12 Vminpu=0.8 Vmaxpu=1.2 model=1 kW=14.060573621285993 kvar=2.8459415620610193 Phases=1 yearly=res_kw_9973_pu

New Load.load_p13ulv3451_2 conn=wye bus1=p13ulv3451.2 kV=0.12 Vminpu=0.8 Vmaxpu=1.2 model=1 kW=14.060573621285993 kvar=2.8459415620610193 Phases=1 yearly=res_kw_9973_pu

New Load.load_p13ulv3452_1 conn=wye bus1=p13ulv3452.1 kV=0.12 Vminpu=0.8 Vmaxpu=1.2 model=1 kW=6.14542435819429 kvar=2.4953572453172748 Phases=1 yearly=res_kw_10355_pu

New Load.load_p13ulv3452_2 conn=wye bus1=p13ulv3452.2 kV=0.12 Vminpu=0.8 Vmaxpu=1.2 model=1 kW=6.14542435819429 kvar=2.4953572453172748 Phases=1 yearly=res_kw_10355_pu

New Load.load_p13ulv3453_1 conn=wye bus1=p13ulv3453.1 kV=0.12 Vminpu=0.8 Vmaxpu=1.2 model=1 kW=6.500451495129185 kvar=1.5330076729587747 Phases=1 yearly=com_kw_41364_pu

New Load.load_p13ulv3453_2 conn=wye bus1=p13ulv3453.2 kV=0.12 Vminpu=0.8 Vmaxpu=1.2 model=1 kW=6.500451495129185 kvar=1.5330076729587747 Phases=1 yearly=com_kw_41364_pu

New Load.load_p13ulv3454_1 conn=wye bus1=p13ulv3454.1 kV=0.12 Vminpu=0.8 Vmaxpu=1.2 model=1 kW=10.779671606476295 kvar=0.6812152242328302 Phases=1 yearly=com_kw_17600_pu

New Load.load_p13ulv3454_2 conn=wye bus1=p13ulv3454.2 kV=0.12 Vminpu=0.8 Vmaxpu=1.2 model=1 kW=10.779671606476295 kvar=0.6812152242328302 Phases=1 yearly=com_kw_17600_pu

New Load.load_p13ulv3455_1 conn=wye bus1=p13ulv3455.1 kV=0.12 Vminpu=0.8 Vmaxpu=1.2 model=1 kW=4.237064396976419 kvar=0.25029256707639685 Phases=1 yearly=com_kw_1949_pu

New Load.load_p13ulv3455_2 conn=wye bus1=p13ulv3455.2 kV=0.12 Vminpu=0.8 Vmaxpu=1.2 model=1 kW=4.237064396976419 kvar=0.25029256707639685 Phases=1 yearly=com_kw_1949_pu

New Load.load_p13ulv3456_1 conn=wye bus1=p13ulv3456.1 kV=0.12 Vminpu=0.8 Vmaxpu=1.2 model=1 kW=4.298732967846568 kvar=1.4010470651986036 Phases=1 yearly=res_kw_8466_pu

New Load.load_p13ulv3456_2 conn=wye bus1=p13ulv3456.2 kV=0.12 Vminpu=0.8 Vmaxpu=1.2 model=1 kW=4.298732967846568 kvar=1.4010470651986036 Phases=1 yearly=res_kw_8466_pu

New Load.load_p13ulv3457_1 conn=wye bus1=p13ulv3457.1 kV=0.12 Vminpu=0.8 Vmaxpu=1.2 model=1 kW=4.013992703229786 kvar=0.0951464885764126 Phases=1 yearly=res_kw_6166_pu

New Load.load_p13ulv3457_2 conn=wye bus1=p13ulv3457.2 kV=0.12 Vminpu=0.8 Vmaxpu=1.2 model=1 kW=4.013992703229786 kvar=0.0951464885764126 Phases=1 yearly=res_kw_6166_pu

New Load.load_p13ulv3458_1 conn=wye bus1=p13ulv3458.1 kV=0.12 Vminpu=0.8 Vmaxpu=1.2 model=1 kW=7.5383806549144365 kvar=1.9579903741368643 Phases=1 yearly=res_kw_10081_pu

New Load.load_p13ulv3458_2 conn=wye bus1=p13ulv3458.2 kV=0.12 Vminpu=0.8 Vmaxpu=1.2 model=1 kW=7.5383806549144365 kvar=1.9579903741368643 Phases=1 yearly=res_kw_10081_pu

New Load.load_p13ulv3459_1 conn=wye bus1=p13ulv3459.1 kV=0.12 Vminpu=0.8 Vmaxpu=1.2 model=1 kW=4.437029459195736 kvar=1.0499678885984898 Phases=1 yearly=res_kw_12436_pu

New Load.load_p13ulv3459_2 conn=wye bus1=p13ulv3459.2 kV=0.12 Vminpu=0.8 Vmaxpu=1.2 model=1 kW=4.437029459195736 kvar=1.0499678885984898 Phases=1 yearly=res_kw_12436_pu

New Load.load_p13ulv3460_1 conn=wye bus1=p13ulv3460.1 kV=0.12 Vminpu=0.8 Vmaxpu=1.2 model=1 kW=2.2112727173478297 kvar=0.5308516080593575 Phases=1 yearly=res_kw_9776_pu

New Load.load_p13ulv3460_2 conn=wye bus1=p13ulv3460.2 kV=0.12 Vminpu=0.8 Vmaxpu=1.2 model=1 kW=2.2112727173478297 kvar=0.5308516080593575 Phases=1 yearly=res_kw_9776_pu

New Load.load_p13ulv3461_1 conn=wye bus1=p13ulv3461.1 kV=0.12 Vminpu=0.8 Vmaxpu=1.2 model=1 kW=1.4553107323713814 kvar=0.21464746791373357 Phases=1 yearly=res_kw_8283_pu

New Load.load_p13ulv3461_2 conn=wye bus1=p13ulv3461.2 kV=0.12 Vminpu=0.8 Vmaxpu=1.2 model=1 kW=1.4553107323713814 kvar=0.21464746791373357 Phases=1 yearly=res_kw_8283_pu

New Load.load_p13ulv3465_1 conn=wye bus1=p13ulv3465.1 kV=0.12 Vminpu=0.8 Vmaxpu=1.2 model=1 kW=2.2112727173478297 kvar=0.5308516080593575 Phases=1 yearly=res_kw_9776_pu

New Load.load_p13ulv3465_2 conn=wye bus1=p13ulv3465.2 kV=0.12 Vminpu=0.8 Vmaxpu=1.2 model=1 kW=2.2112727173478297 kvar=0.5308516080593575 Phases=1 yearly=res_kw_9776_pu

New Load.load_p13ulv3466_1 conn=wye bus1=p13ulv3466.1 kV=0.12 Vminpu=0.8 Vmaxpu=1.2 model=1 kW=4.525303114747101 kvar=0.4722687720205482 Phases=1 yearly=res_kw_1335_pu

New Load.load_p13ulv3466_2 conn=wye bus1=p13ulv3466.2 kV=0.12 Vminpu=0.8 Vmaxpu=1.2 model=1 kW=4.525303114747101 kvar=0.4722687720205482 Phases=1 yearly=res_kw_1335_pu

New Load.load_p13ulv3467_1 conn=wye bus1=p13ulv3467.1 kV=0.12 Vminpu=0.8 Vmaxpu=1.2 model=1 kW=7.178237721812941 kvar=2.8362342496871964 Phases=1 yearly=res_kw_1511_pu

New Load.load_p13ulv3467_2 conn=wye bus1=p13ulv3467.2 kV=0.12 Vminpu=0.8 Vmaxpu=1.2 model=1 kW=7.178237721812941 kvar=2.8362342496871964 Phases=1 yearly=res_kw_1511_pu

New Load.load_p13ulv3468_1 conn=wye bus1=p13ulv3467.1 kV=0.12 Vminpu=0.8 Vmaxpu=1.2 model=1 kW=4.4376056283586855 kvar=0.48182100996017646 Phases=1 yearly=res_kw_13532_pu

New Load.load_p13ulv3468_2 conn=wye bus1=p13ulv3467.2 kV=0.12 Vminpu=0.8 Vmaxpu=1.2 model=1 kW=4.4376056283586855 kvar=0.48182100996017646 Phases=1 yearly=res_kw_13532_pu

New Load.load_p13ulv3469_1 conn=wye bus1=p13ulv3469.1 kV=0.12 Vminpu=0.8 Vmaxpu=1.2 model=1 kW=6.511301584867784 kvar=1.5460762472192853 Phases=1 yearly=com_kw_29050_pu

New Load.load_p13ulv3469_2 conn=wye bus1=p13ulv3469.2 kV=0.12 Vminpu=0.8 Vmaxpu=1.2 model=1 kW=6.511301584867784 kvar=1.5460762472192853 Phases=1 yearly=com_kw_29050_pu

New Load.load_p13ulv3470_1 conn=wye bus1=p13ulv3470.1 kV=0.12 Vminpu=0.8 Vmaxpu=1.2 model=1 kW=28.8787602765926 kvar=4.994045373539141 Phases=1 yearly=res_kw_7587_pu

New Load.load_p13ulv3470_2 conn=wye bus1=p13ulv3470.2 kV=0.12 Vminpu=0.8 Vmaxpu=1.2 model=1 kW=28.8787602765926 kvar=4.994045373539141 Phases=1 yearly=res_kw_7587_pu

New Load.load_p13ulv3471_1 conn=wye bus1=p13ulv3471.1 kV=0.12 Vminpu=0.8 Vmaxpu=1.2 model=1 kW=10.779671606476295 kvar=0.6812152242328302 Phases=1 yearly=com_kw_17600_pu

New Load.load_p13ulv3471_2 conn=wye bus1=p13ulv3471.2 kV=0.12 Vminpu=0.8 Vmaxpu=1.2 model=1 kW=10.779671606476295 kvar=0.6812152242328302 Phases=1 yearly=com_kw_17600_pu

New Load.load_p13ulv3472_1 conn=wye bus1=p13ulv3471.1 kV=0.12 Vminpu=0.8 Vmaxpu=1.2 model=1 kW=6.219067935442467 kvar=1.357570672930625 Phases=1 yearly=com_kw_2490_pu

New Load.load_p13ulv3472_2 conn=wye bus1=p13ulv3471.2 kV=0.12 Vminpu=0.8 Vmaxpu=1.2 model=1 kW=6.219067935442467 kvar=1.357570672930625 Phases=1 yearly=com_kw_2490_pu

New Load.load_p13ulv3476_1 conn=wye bus1=p13ulv3476.1 kV=0.12 Vminpu=0.8 Vmaxpu=1.2 model=1 kW=6.905727092479465 kvar=1.6733628858409957 Phases=1 yearly=res_kw_2812_pu

New Load.load_p13ulv3476_2 conn=wye bus1=p13ulv3476.2 kV=0.12 Vminpu=0.8 Vmaxpu=1.2 model=1 kW=6.905727092479465 kvar=1.6733628858409957 Phases=1 yearly=res_kw_2812_pu

New Load.load_p13ulv3477_1 conn=wye bus1=p13ulv3477.1 kV=0.12 Vminpu=0.8 Vmaxpu=1.2 model=1 kW=4.204725127284944 kvar=0.6269211995675679 Phases=1 yearly=res_kw_107_pu

New Load.load_p13ulv3477_2 conn=wye bus1=p13ulv3477.2 kV=0.12 Vminpu=0.8 Vmaxpu=1.2 model=1 kW=4.204725127284944 kvar=0.6269211995675679 Phases=1 yearly=res_kw_107_pu

New Load.load_p13ulv3478_1 conn=wye bus1=p13ulv3478.1 kV=0.12 Vminpu=0.8 Vmaxpu=1.2 model=1 kW=9.641022915541466 kvar=3.4103174951076594 Phases=1 yearly=res_kw_12449_pu

New Load.load_p13ulv3478_2 conn=wye bus1=p13ulv3478.2 kV=0.12 Vminpu=0.8 Vmaxpu=1.2 model=1 kW=9.641022915541466 kvar=3.4103174951076594 Phases=1 yearly=res_kw_12449_pu

New Load.load_p13ulv3479_1 conn=wye bus1=p13ulv3479.1 kV=0.12 Vminpu=0.8 Vmaxpu=1.2 model=1 kW=10.933442162799835 kvar=1.9602881467368607 Phases=1 yearly=res_kw_14137_pu

New Load.load_p13ulv3479_2 conn=wye bus1=p13ulv3479.2 kV=0.12 Vminpu=0.8 Vmaxpu=1.2 model=1 kW=10.933442162799835 kvar=1.9602881467368607 Phases=1 yearly=res_kw_14137_pu

New Load.load_p13ulv3480_1 conn=wye bus1=p13ulv3480.1 kV=0.12 Vminpu=0.8 Vmaxpu=1.2 model=1 kW=5.556450793943781 kvar=1.7014391246371996 Phases=1 yearly=res_kw_3669_pu

New Load.load_p13ulv3480_2 conn=wye bus1=p13ulv3480.2 kV=0.12 Vminpu=0.8 Vmaxpu=1.2 model=1 kW=5.556450793943781 kvar=1.7014391246371996 Phases=1 yearly=res_kw_3669_pu

New Load.load_p13ulv3481_1 conn=wye bus1=p13ulv3481.1 kV=0.12 Vminpu=0.8 Vmaxpu=1.2 model=1 kW=4.298732967846568 kvar=1.4010470651986036 Phases=1 yearly=res_kw_8466_pu

New Load.load_p13ulv3481_2 conn=wye bus1=p13ulv3481.2 kV=0.12 Vminpu=0.8 Vmaxpu=1.2 model=1 kW=4.298732967846568 kvar=1.4010470651986036 Phases=1 yearly=res_kw_8466_pu

New Load.load_p13ulv15690_1 conn=wye bus1=p13ulv15690.1 kV=0.12 Vminpu=0.8 Vmaxpu=1.2 model=1 kW=7.393517159365113 kvar=1.5396474285514203 Phases=1 yearly=res_kw_5207_pu

New Load.load_p13ulv15690_2 conn=wye bus1=p13ulv15690.2 kV=0.12 Vminpu=0.8 Vmaxpu=1.2 model=1 kW=7.393517159365113 kvar=1.5396474285514203 Phases=1 yearly=res_kw_5207_pu

New Load.load_p13ulv15691_1 conn=wye bus1=p13ulv15691.1 kV=0.12 Vminpu=0.8 Vmaxpu=1.2 model=1 kW=3.4477550901029463 kvar=0.48537613816094066 Phases=1 yearly=res_kw_8004_pu

New Load.load_p13ulv15691_2 conn=wye bus1=p13ulv15691.2 kV=0.12 Vminpu=0.8 Vmaxpu=1.2 model=1 kW=3.4477550901029463 kvar=0.48537613816094066 Phases=1 yearly=res_kw_8004_pu

New Load.load_p13ulv15692_1 conn=wye bus1=p13ulv15692.1 kV=0.12 Vminpu=0.8 Vmaxpu=1.2 model=1 kW=6.272059681930453 kvar=1.3542368354355572 Phases=1 yearly=res_kw_11579_pu

New Load.load_p13ulv15692_2 conn=wye bus1=p13ulv15692.2 kV=0.12 Vminpu=0.8 Vmaxpu=1.2 model=1 kW=6.272059681930453 kvar=1.3542368354355572 Phases=1 yearly=res_kw_11579_pu

New Load.load_p13ulv15693_1 conn=wye bus1=p13ulv15693.1 kV=0.12 Vminpu=0.8 Vmaxpu=1.2 model=1 kW=24.94343535854916 kvar=10.207815494623784 Phases=1 yearly=res_kw_2485_pu

New Load.load_p13ulv15693_2 conn=wye bus1=p13ulv15693.2 kV=0.12 Vminpu=0.8 Vmaxpu=1.2 model=1 kW=24.94343535854916 kvar=10.207815494623784 Phases=1 yearly=res_kw_2485_pu

New Load.load_p13ulv15694_1 conn=wye bus1=p13ulv15694.1 kV=0.12 Vminpu=0.8 Vmaxpu=1.2 model=1 kW=3.5127978636027604 kvar=0.9794275484237299 Phases=1 yearly=res_kw_12216_pu

New Load.load_p13ulv15694_2 conn=wye bus1=p13ulv15694.2 kV=0.12 Vminpu=0.8 Vmaxpu=1.2 model=1 kW=3.5127978636027604 kvar=0.9794275484237299 Phases=1 yearly=res_kw_12216_pu

New Load.load_p13ulv15695_1 conn=wye bus1=p13ulv15695.1 kV=0.12 Vminpu=0.8 Vmaxpu=1.2 model=1 kW=7.232615423691353 kvar=1.8249023581070467 Phases=1 yearly=res_kw_14434_pu

New Load.load_p13ulv15695_2 conn=wye bus1=p13ulv15695.2 kV=0.12 Vminpu=0.8 Vmaxpu=1.2 model=1 kW=7.232615423691353 kvar=1.8249023581070467 Phases=1 yearly=res_kw_14434_pu

New Load.load_p13ulv15696_1 conn=wye bus1=p13ulv15696.1 kV=0.12 Vminpu=0.8 Vmaxpu=1.2 model=1 kW=4.561468034786517 kvar=1.0348880322472904 Phases=1 yearly=res_kw_712_pu

New Load.load_p13ulv15696_2 conn=wye bus1=p13ulv15696.2 kV=0.12 Vminpu=0.8 Vmaxpu=1.2 model=1 kW=4.561468034786517 kvar=1.0348880322472904 Phases=1 yearly=res_kw_712_pu

New Load.load_p13ulv15697_1 conn=wye bus1=p13ulv15697.1 kV=0.12 Vminpu=0.8 Vmaxpu=1.2 model=1 kW=2.45716749446947 kvar=0.6584611048368889 Phases=1 yearly=res_kw_11003_pu

New Load.load_p13ulv15697_2 conn=wye bus1=p13ulv15697.2 kV=0.12 Vminpu=0.8 Vmaxpu=1.2 model=1 kW=2.45716749446947 kvar=0.6584611048368889 Phases=1 yearly=res_kw_11003_pu

New Load.load_p13ulv15698_1 conn=wye bus1=p13ulv15698.1 kV=0.12 Vminpu=0.8 Vmaxpu=1.2 model=1 kW=3.4477550901029463 kvar=0.48537613816094066 Phases=1 yearly=res_kw_8004_pu

New Load.load_p13ulv15698_2 conn=wye bus1=p13ulv15698.2 kV=0.12 Vminpu=0.8 Vmaxpu=1.2 model=1 kW=3.4477550901029463 kvar=0.48537613816094066 Phases=1 yearly=res_kw_8004_pu

New Load.load_p13ulv15699_1 conn=wye bus1=p13ulv15699.1 kV=0.12 Vminpu=0.8 Vmaxpu=1.2 model=1 kW=11.950327944491178 kvar=2.704967356093565 Phases=1 yearly=res_kw_13429_pu

New Load.load_p13ulv15699_2 conn=wye bus1=p13ulv15699.2 kV=0.12 Vminpu=0.8 Vmaxpu=1.2 model=1 kW=11.950327944491178 kvar=2.704967356093565 Phases=1 yearly=res_kw_13429_pu

New Load.load_p13ulv15700_1 conn=wye bus1=p13ulv15700.1 kV=0.12 Vminpu=0.8 Vmaxpu=1.2 model=1 kW=2.8161391092275307 kvar=0.7157389662487001 Phases=1 yearly=res_kw_13245_pu

New Load.load_p13ulv15700_2 conn=wye bus1=p13ulv15700.2 kV=0.12 Vminpu=0.8 Vmaxpu=1.2 model=1 kW=2.8161391092275307 kvar=0.7157389662487001 Phases=1 yearly=res_kw_13245_pu

New Load.load_p13ulv15701_1 conn=wye bus1=p13ulv15701.1 kV=0.12 Vminpu=0.8 Vmaxpu=1.2 model=1 kW=3.6929402642720457 kvar=0.18567820146012812 Phases=1 yearly=res_kw_9376_pu

New Load.load_p13ulv15701_2 conn=wye bus1=p13ulv15701.2 kV=0.12 Vminpu=0.8 Vmaxpu=1.2 model=1 kW=3.6929402642720457 kvar=0.18567820146012812 Phases=1 yearly=res_kw_9376_pu

New Load.load_p13ulv15702_1 conn=wye bus1=p13ulv15702.1 kV=0.12 Vminpu=0.8 Vmaxpu=1.2 model=1 kW=5.104816504570964 kvar=0.3655657341641618 Phases=1 yearly=res_kw_1940_pu

New Load.load_p13ulv15702_2 conn=wye bus1=p13ulv15702.2 kV=0.12 Vminpu=0.8 Vmaxpu=1.2 model=1 kW=5.104816504570964 kvar=0.3655657341641618 Phases=1 yearly=res_kw_1940_pu

New Load.load_p13ulv15703_1 conn=wye bus1=p13ulv15703.1 kV=0.12 Vminpu=0.8 Vmaxpu=1.2 model=1 kW=4.966871133201625 kvar=1.668687483411894 Phases=1 yearly=res_kw_2882_pu

New Load.load_p13ulv15703_2 conn=wye bus1=p13ulv15703.2 kV=0.12 Vminpu=0.8 Vmaxpu=1.2 model=1 kW=4.966871133201625 kvar=1.668687483411894 Phases=1 yearly=res_kw_2882_pu

New Load.load_p13ulv15704_1 conn=wye bus1=p13ulv15704.1 kV=0.12 Vminpu=0.8 Vmaxpu=1.2 model=1 kW=7.043744081036207 kvar=1.3364700722397445 Phases=1 yearly=res_kw_1142_pu

New Load.load_p13ulv15704_2 conn=wye bus1=p13ulv15704.2 kV=0.12 Vminpu=0.8 Vmaxpu=1.2 model=1 kW=7.043744081036207 kvar=1.3364700722397445 Phases=1 yearly=res_kw_1142_pu

New Load.load_p13ulv15705_1 conn=wye bus1=p13ulv15705.1 kV=0.12 Vminpu=0.8 Vmaxpu=1.2 model=1 kW=6.207759014657719 kvar=1.1772543694509208 Phases=1 yearly=res_kw_1469_pu

New Load.load_p13ulv15705_2 conn=wye bus1=p13ulv15705.2 kV=0.12 Vminpu=0.8 Vmaxpu=1.2 model=1 kW=6.207759014657719 kvar=1.1772543694509208 Phases=1 yearly=res_kw_1469_pu

New Load.load_p13ulv15706_1 conn=wye bus1=p13ulv15706.1 kV=0.12 Vminpu=0.8 Vmaxpu=1.2 model=1 kW=0.6031291221342301 kvar=0.36084345394425327 Phases=1 yearly=res_kw_13489_pu

New Load.load_p13ulv15706_2 conn=wye bus1=p13ulv15706.2 kV=0.12 Vminpu=0.8 Vmaxpu=1.2 model=1 kW=0.6031291221342301 kvar=0.36084345394425327 Phases=1 yearly=res_kw_13489_pu

New Load.load_p13ulv15712_1 conn=wye bus1=p13ulv15712.1 kV=0.12 Vminpu=0.8 Vmaxpu=1.2 model=1 kW=5.6757115159209 kvar=1.5488389392398225 Phases=1 yearly=res_kw_9466_pu

New Load.load_p13ulv15712_2 conn=wye bus1=p13ulv15712.2 kV=0.12 Vminpu=0.8 Vmaxpu=1.2 model=1 kW=5.6757115159209 kvar=1.5488389392398225 Phases=1 yearly=res_kw_9466_pu

New Load.load_p13ulv15713_1 conn=wye bus1=p13ulv15713.1 kV=0.12 Vminpu=0.8 Vmaxpu=1.2 model=1 kW=4.6873216030508145 kvar=1.153707063281946 Phases=1 yearly=res_kw_1851_pu

New Load.load_p13ulv15713_2 conn=wye bus1=p13ulv15713.2 kV=0.12 Vminpu=0.8 Vmaxpu=1.2 model=1 kW=4.6873216030508145 kvar=1.153707063281946 Phases=1 yearly=res_kw_1851_pu

New Load.load_p13ulv15714_1 conn=wye bus1=p13ulv15714.1 kV=0.12 Vminpu=0.8 Vmaxpu=1.2 model=1 kW=3.536574581715533 kvar=0.9491004607897684 Phases=1 yearly=res_kw_7670_pu

New Load.load_p13ulv15714_2 conn=wye bus1=p13ulv15714.2 kV=0.12 Vminpu=0.8 Vmaxpu=1.2 model=1 kW=3.536574581715533 kvar=0.9491004607897684 Phases=1 yearly=res_kw_7670_pu

New Load.load_p13ulv15715_1 conn=wye bus1=p13ulv15714.1 kV=0.12 Vminpu=0.8 Vmaxpu=1.2 model=1 kW=2.608760887522913 kvar=1.0540658855038505 Phases=1 yearly=res_kw_12272_pu

New Load.load_p13ulv15715_2 conn=wye bus1=p13ulv15714.2 kV=0.12 Vminpu=0.8 Vmaxpu=1.2 model=1 kW=2.608760887522913 kvar=1.0540658855038505 Phases=1 yearly=res_kw_12272_pu

New Load.load_p13ulv15716_1 conn=wye bus1=p13ulv15716.1 kV=0.12 Vminpu=0.8 Vmaxpu=1.2 model=1 kW=9.633169909207822 kvar=1.3028153557478144 Phases=1 yearly=res_kw_9830_pu

New Load.load_p13ulv15716_2 conn=wye bus1=p13ulv15716.2 kV=0.12 Vminpu=0.8 Vmaxpu=1.2 model=1 kW=9.633169909207822 kvar=1.3028153557478144 Phases=1 yearly=res_kw_9830_pu

New Load.load_p13ulv15717_1 conn=wye bus1=p13ulv15717.1 kV=0.12 Vminpu=0.8 Vmaxpu=1.2 model=1 kW=3.3199481038518184 kvar=0.3250298900750565 Phases=1 yearly=res_kw_7935_pu

New Load.load_p13ulv15717_2 conn=wye bus1=p13ulv15717.2 kV=0.12 Vminpu=0.8 Vmaxpu=1.2 model=1 kW=3.3199481038518184 kvar=0.3250298900750565 Phases=1 yearly=res_kw_7935_pu

New Load.load_p13ulv15718_1 conn=wye bus1=p13ulv15718.1 kV=0.12 Vminpu=0.8 Vmaxpu=1.2 model=1 kW=2.1383669294427556 kvar=0.9111586935574751 Phases=1 yearly=res_kw_5301_pu

New Load.load_p13ulv15718_2 conn=wye bus1=p13ulv15718.2 kV=0.12 Vminpu=0.8 Vmaxpu=1.2 model=1 kW=2.1383669294427556 kvar=0.9111586935574751 Phases=1 yearly=res_kw_5301_pu

New Load.load_p13ulv15719_1 conn=wye bus1=p13ulv15719.1 kV=0.12 Vminpu=0.8 Vmaxpu=1.2 model=1 kW=2.2112727173478297 kvar=0.5308516080593575 Phases=1 yearly=res_kw_9776_pu

New Load.load_p13ulv15719_2 conn=wye bus1=p13ulv15719.2 kV=0.12 Vminpu=0.8 Vmaxpu=1.2 model=1 kW=2.2112727173478297 kvar=0.5308516080593575 Phases=1 yearly=res_kw_9776_pu

New Load.load_p13ulv15720_1 conn=wye bus1=p13ulv15720.1 kV=0.12 Vminpu=0.8 Vmaxpu=1.2 model=1 kW=3.5821374260926486 kvar=0.18032929921833907 Phases=1 yearly=res_kw_11950_pu

New Load.load_p13ulv15720_2 conn=wye bus1=p13ulv15720.2 kV=0.12 Vminpu=0.8 Vmaxpu=1.2 model=1 kW=3.5821374260926486 kvar=0.18032929921833907 Phases=1 yearly=res_kw_11950_pu

New Load.load_p13ulv15721_1 conn=wye bus1=p13ulv15721.1 kV=0.12 Vminpu=0.8 Vmaxpu=1.2 model=1 kW=7.674581320559962 kvar=0.7468331567814765 Phases=1 yearly=res_kw_6451_pu

New Load.load_p13ulv15721_2 conn=wye bus1=p13ulv15721.2 kV=0.12 Vminpu=0.8 Vmaxpu=1.2 model=1 kW=7.674581320559962 kvar=0.7468331567814765 Phases=1 yearly=res_kw_6451_pu

New Load.load_p13ulv15722_1 conn=wye bus1=p13ulv15722.1 kV=0.12 Vminpu=0.8 Vmaxpu=1.2 model=1 kW=2.4039294408265515 kvar=0.8292327439937005 Phases=1 yearly=res_kw_8724_pu

New Load.load_p13ulv15722_2 conn=wye bus1=p13ulv15722.2 kV=0.12 Vminpu=0.8 Vmaxpu=1.2 model=1 kW=2.4039294408265515 kvar=0.8292327439937005 Phases=1 yearly=res_kw_8724_pu

New Load.load_p13ulv15723_1 conn=wye bus1=p13ulv15723.1 kV=0.12 Vminpu=0.8 Vmaxpu=1.2 model=1 kW=3.0228785714592967 kvar=1.057943464594374 Phases=1 yearly=res_kw_6399_pu

New Load.load_p13ulv15723_2 conn=wye bus1=p13ulv15723.2 kV=0.12 Vminpu=0.8 Vmaxpu=1.2 model=1 kW=3.0228785714592967 kvar=1.057943464594374 Phases=1 yearly=res_kw_6399_pu

New Load.load_p13ulv15724_1 conn=wye bus1=p13ulv15724.1 kV=0.12 Vminpu=0.8 Vmaxpu=1.2 model=1 kW=3.2847737371461676 kvar=0.5402234962749611 Phases=1 yearly=res_kw_4545_pu

New Load.load_p13ulv15724_2 conn=wye bus1=p13ulv15724.2 kV=0.12 Vminpu=0.8 Vmaxpu=1.2 model=1 kW=3.2847737371461676 kvar=0.5402234962749611 Phases=1 yearly=res_kw_4545_pu

New Load.load_p13ulv15725_1 conn=wye bus1=p13ulv15725.1 kV=0.12 Vminpu=0.8 Vmaxpu=1.2 model=1 kW=2.14720038589496 kvar=0.8148360695243748 Phases=1 yearly=res_kw_13015_pu

New Load.load_p13ulv15725_2 conn=wye bus1=p13ulv15725.2 kV=0.12 Vminpu=0.8 Vmaxpu=1.2 model=1 kW=2.14720038589496 kvar=0.8148360695243748 Phases=1 yearly=res_kw_13015_pu

New Load.load_p13ulv15726_1 conn=wye bus1=p13ulv15726.1 kV=0.12 Vminpu=0.8 Vmaxpu=1.2 model=1 kW=9.648324409429568 kvar=1.7639017541719262 Phases=1 yearly=res_kw_6114_pu

New Load.load_p13ulv15726_2 conn=wye bus1=p13ulv15726.2 kV=0.12 Vminpu=0.8 Vmaxpu=1.2 model=1 kW=9.648324409429568 kvar=1.7639017541719262 Phases=1 yearly=res_kw_6114_pu

New Load.load_p13ulv15727_1 conn=wye bus1=p13ulv15727.1 kV=0.12 Vminpu=0.8 Vmaxpu=1.2 model=1 kW=6.6242300520054105 kvar=1.9441840230947276 Phases=1 yearly=res_kw_7012_pu

New Load.load_p13ulv15727_2 conn=wye bus1=p13ulv15727.2 kV=0.12 Vminpu=0.8 Vmaxpu=1.2 model=1 kW=6.6242300520054105 kvar=1.9441840230947276 Phases=1 yearly=res_kw_7012_pu

New Load.load_p13ulv15728_1 conn=wye bus1=p13ulv15728.1 kV=0.12 Vminpu=0.8 Vmaxpu=1.2 model=1 kW=1.8673628676700664 kvar=0.5690686636744788 Phases=1 yearly=res_kw_7557_pu

New Load.load_p13ulv15728_2 conn=wye bus1=p13ulv15728.2 kV=0.12 Vminpu=0.8 Vmaxpu=1.2 model=1 kW=1.8673628676700664 kvar=0.5690686636744788 Phases=1 yearly=res_kw_7557_pu

New Load.load_p13ulv15729_1 conn=wye bus1=p13ulv15729.1 kV=0.12 Vminpu=0.8 Vmaxpu=1.2 model=1 kW=4.262954543726521 kvar=0.5048917887531463 Phases=1 yearly=res_kw_4165_pu

New Load.load_p13ulv15729_2 conn=wye bus1=p13ulv15729.2 kV=0.12 Vminpu=0.8 Vmaxpu=1.2 model=1 kW=4.262954543726521 kvar=0.5048917887531463 Phases=1 yearly=res_kw_4165_pu

New Load.load_p13ulv15730_1 conn=wye bus1=p13ulv15730.1 kV=0.12 Vminpu=0.8 Vmaxpu=1.2 model=1 kW=4.204725127284944 kvar=0.6269211995675679 Phases=1 yearly=res_kw_107_pu

New Load.load_p13ulv15730_2 conn=wye bus1=p13ulv15730.2 kV=0.12 Vminpu=0.8 Vmaxpu=1.2 model=1 kW=4.204725127284944 kvar=0.6269211995675679 Phases=1 yearly=res_kw_107_pu

New Load.load_p13ulv15731_1 conn=wye bus1=p13ulv15731.1 kV=0.12 Vminpu=0.8 Vmaxpu=1.2 model=1 kW=3.8766233997677513 kvar=0.6943953673016762 Phases=1 yearly=res_kw_4734_pu

New Load.load_p13ulv15731_2 conn=wye bus1=p13ulv15731.2 kV=0.12 Vminpu=0.8 Vmaxpu=1.2 model=1 kW=3.8766233997677513 kvar=0.6943953673016762 Phases=1 yearly=res_kw_4734_pu

New Load.load_p13ulv15732_1 conn=wye bus1=p13ulv15732.1 kV=0.12 Vminpu=0.8 Vmaxpu=1.2 model=1 kW=4.666700735318043 kvar=0.9772214897575038 Phases=1 yearly=res_kw_2888_pu

New Load.load_p13ulv15732_2 conn=wye bus1=p13ulv15732.2 kV=0.12 Vminpu=0.8 Vmaxpu=1.2 model=1 kW=4.666700735318043 kvar=0.9772214897575038 Phases=1 yearly=res_kw_2888_pu

New Load.load_p13ulv15733_1 conn=wye bus1=p13ulv15733.1 kV=0.12 Vminpu=0.8 Vmaxpu=1.2 model=1 kW=4.227004570157498 kvar=0.4967695445475238 Phases=1 yearly=res_kw_4161_pu

New Load.load_p13ulv15733_2 conn=wye bus1=p13ulv15733.2 kV=0.12 Vminpu=0.8 Vmaxpu=1.2 model=1 kW=4.227004570157498 kvar=0.4967695445475238 Phases=1 yearly=res_kw_4161_pu

New Load.load_p13ulv15734_1 conn=wye bus1=p13ulv15734.1 kV=0.12 Vminpu=0.8 Vmaxpu=1.2 model=1 kW=6.916323921346385 kvar=1.8676990359295969 Phases=1 yearly=res_kw_1476_pu

New Load.load_p13ulv15734_2 conn=wye bus1=p13ulv15734.2 kV=0.12 Vminpu=0.8 Vmaxpu=1.2 model=1 kW=6.916323921346385 kvar=1.8676990359295969 Phases=1 yearly=res_kw_1476_pu

New Load.load_p13ulv15735_1 conn=wye bus1=p13ulv15735.1 kV=0.12 Vminpu=0.8 Vmaxpu=1.2 model=1 kW=5.797385583597078 kvar=1.1060395285565838 Phases=1 yearly=res_kw_12512_pu

New Load.load_p13ulv15735_2 conn=wye bus1=p13ulv15735.2 kV=0.12 Vminpu=0.8 Vmaxpu=1.2 model=1 kW=5.797385583597078 kvar=1.1060395285565838 Phases=1 yearly=res_kw_12512_pu

New Load.load_p13ulv15736_1 conn=wye bus1=p13ulv15736.1 kV=0.12 Vminpu=0.8 Vmaxpu=1.2 model=1 kW=7.4266158508878215 kvar=2.739596573266224 Phases=1 yearly=res_kw_14754_pu

New Load.load_p13ulv15736_2 conn=wye bus1=p13ulv15736.2 kV=0.12 Vminpu=0.8 Vmaxpu=1.2 model=1 kW=7.4266158508878215 kvar=2.739596573266224 Phases=1 yearly=res_kw_14754_pu

New Load.load_p13ulv15737_1 conn=wye bus1=p13ulv15737.1 kV=0.12 Vminpu=0.8 Vmaxpu=1.2 model=1 kW=10.282982907991595 kvar=2.381125299760927 Phases=1 yearly=res_kw_7023_pu

New Load.load_p13ulv15737_2 conn=wye bus1=p13ulv15737.2 kV=0.12 Vminpu=0.8 Vmaxpu=1.2 model=1 kW=10.282982907991595 kvar=2.381125299760927 Phases=1 yearly=res_kw_7023_pu

New Load.load_p13ulv15738_1 conn=wye bus1=p13ulv15737.1 kV=0.12 Vminpu=0.8 Vmaxpu=1.2 model=1 kW=4.494912191673572 kvar=0.5365787739324195 Phases=1 yearly=res_kw_14721_pu

New Load.load_p13ulv15738_2 conn=wye bus1=p13ulv15737.2 kV=0.12 Vminpu=0.8 Vmaxpu=1.2 model=1 kW=4.494912191673572 kvar=0.5365787739324195 Phases=1 yearly=res_kw_14721_pu

New Load.load_p13ulv15739_1 conn=wye bus1=p13ulv15739.1 kV=0.12 Vminpu=0.8 Vmaxpu=1.2 model=1 kW=1.448164901541984 kvar=0.3235156591238907 Phases=1 yearly=com_kw_2456_pu

New Load.load_p13ulv15739_2 conn=wye bus1=p13ulv15739.2 kV=0.12 Vminpu=0.8 Vmaxpu=1.2 model=1 kW=1.448164901541984 kvar=0.3235156591238907 Phases=1 yearly=com_kw_2456_pu

New Load.load_p13ulv15740_1 conn=wye bus1=p13ulv15740.1 kV=0.12 Vminpu=0.8 Vmaxpu=1.2 model=1 kW=3.536574581715533 kvar=0.9491004607897684 Phases=1 yearly=res_kw_7670_pu

New Load.load_p13ulv15740_2 conn=wye bus1=p13ulv15740.2 kV=0.12 Vminpu=0.8 Vmaxpu=1.2 model=1 kW=3.536574581715533 kvar=0.9491004607897684 Phases=1 yearly=res_kw_7670_pu

New Load.load_p13ulv15741_1 conn=wye bus1=p13ulv15741.1 kV=0.12 Vminpu=0.8 Vmaxpu=1.2 model=1 kW=1.811785045781775 kvar=0.8857425190479955 Phases=1 yearly=res_kw_409_pu

New Load.load_p13ulv15741_2 conn=wye bus1=p13ulv15741.2 kV=0.12 Vminpu=0.8 Vmaxpu=1.2 model=1 kW=1.811785045781775 kvar=0.8857425190479955 Phases=1 yearly=res_kw_409_pu

New Load.load_p13ulv15742_1 conn=wye bus1=p13ulv15742.1 kV=0.12 Vminpu=0.8 Vmaxpu=1.2 model=1 kW=2.12900025685399 kvar=0.5436839468832108 Phases=1 yearly=res_kw_5262_pu

New Load.load_p13ulv15742_2 conn=wye bus1=p13ulv15742.2 kV=0.12 Vminpu=0.8 Vmaxpu=1.2 model=1 kW=2.12900025685399 kvar=0.5436839468832108 Phases=1 yearly=res_kw_5262_pu

New Load.load_p13ulv15743_1 conn=wye bus1=p13ulv15743.1 kV=0.12 Vminpu=0.8 Vmaxpu=1.2 model=1 kW=1.8104412651374304 kvar=0.20401012757664877 Phases=1 yearly=res_kw_5259_pu

New Load.load_p13ulv15743_2 conn=wye bus1=p13ulv15743.2 kV=0.12 Vminpu=0.8 Vmaxpu=1.2 model=1 kW=1.8104412651374304 kvar=0.20401012757664877 Phases=1 yearly=res_kw_5259_pu

New Load.load_p13ulv15744_1 conn=wye bus1=p13ulv15744.1 kV=0.12 Vminpu=0.8 Vmaxpu=1.2 model=1 kW=3.5550713895719452 kvar=0.8002362893361499 Phases=1 yearly=res_kw_6237_pu

New Load.load_p13ulv15744_2 conn=wye bus1=p13ulv15744.2 kV=0.12 Vminpu=0.8 Vmaxpu=1.2 model=1 kW=3.5550713895719452 kvar=0.8002362893361499 Phases=1 yearly=res_kw_6237_pu

New Load.load_p13ulv15745_1 conn=wye bus1=p13ulv15745.1 kV=0.12 Vminpu=0.8 Vmaxpu=1.2 model=1 kW=4.013992703229786 kvar=0.0951464885764126 Phases=1 yearly=res_kw_6166_pu

New Load.load_p13ulv15745_2 conn=wye bus1=p13ulv15745.2 kV=0.12 Vminpu=0.8 Vmaxpu=1.2 model=1 kW=4.013992703229786 kvar=0.0951464885764126 Phases=1 yearly=res_kw_6166_pu

New Load.load_p13ulv15746_1 conn=wye bus1=p13ulv15746.1 kV=0.12 Vminpu=0.8 Vmaxpu=1.2 model=1 kW=6.272059681930453 kvar=1.3542368354355572 Phases=1 yearly=res_kw_11579_pu

New Load.load_p13ulv15746_2 conn=wye bus1=p13ulv15746.2 kV=0.12 Vminpu=0.8 Vmaxpu=1.2 model=1 kW=6.272059681930453 kvar=1.3542368354355572 Phases=1 yearly=res_kw_11579_pu

New Load.load_p13ulv15747_1 conn=wye bus1=p13ulv15747.1 kV=0.12 Vminpu=0.8 Vmaxpu=1.2 model=1 kW=2.7096273035432676 kvar=0.9427200469116054 Phases=1 yearly=res_kw_804_pu

New Load.load_p13ulv15747_2 conn=wye bus1=p13ulv15747.2 kV=0.12 Vminpu=0.8 Vmaxpu=1.2 model=1 kW=2.7096273035432676 kvar=0.9427200469116054 Phases=1 yearly=res_kw_804_pu

New Load.load_p13ulv15748_1 conn=wye bus1=p13ulv15748.1 kV=0.12 Vminpu=0.8 Vmaxpu=1.2 model=1 kW=3.477079137618401 kvar=0.2506950417219762 Phases=1 yearly=res_kw_14630_pu

New Load.load_p13ulv15748_2 conn=wye bus1=p13ulv15748.2 kV=0.12 Vminpu=0.8 Vmaxpu=1.2 model=1 kW=3.477079137618401 kvar=0.2506950417219762 Phases=1 yearly=res_kw_14630_pu

New Load.load_p13ulv15749_1 conn=wye bus1=p13ulv15749.1 kV=0.12 Vminpu=0.8 Vmaxpu=1.2 model=1 kW=5.000368917912857 kvar=0.2412740295898566 Phases=1 yearly=res_kw_4000_pu
