New Line.l(r:p13udt1315lv-p13ulv3440) Units=km Length=0.0098279 bus1=p13udt1315lv.1.2 bus2=p13ulv3440.1.2 switch=n enabled=y phases=2 Linecode=1P_OH_AL_2/0_Rucina_2

New Line.l(r:p13udm5693-p13ulv3471) Units=km Length=0.0120517 bus1=p13udm5693.1.2 bus2=p13ulv3471.1.2 switch=n enabled=y phases=2 Linecode=1P_OH_AL_2/0_Rucina_2_7

New Line.l(r:p13udm5693-p13udt1315lv) Units=km Length=0.0160201 bus1=p13udt1315lv.1.2 bus2=p13udm5693.1.2 switch=n enabled=y phases=2 Linecode=1P_OH_AL_2/0_Rucina_2_7

New Line.l(r:p13udt1316lv-p13ulv3465) Units=km Length=0.0166845 bus1=p13udt1316lv.1.2 bus2=p13ulv3465.1.2 switch=n enabled=y phases=2 Linecode=1P_OH_AL_2/0_Rucina_2

New Line.l(r:p13udm5694-p13ulv3441) Units=km Length=0.009820020000000002 bus1=p13udm5694.1.2 bus2=p13ulv3441.1.2 switch=n enabled=y phases=2 Linecode=1P_OH_AL_2/0_Rucina_2

New Line.l(r:p13udm5694-p13udt1316lv) Units=km Length=0.0184202 bus1=p13udt1316lv.1.2 bus2=p13udm5694.1.2 switch=n enabled=y phases=2 Linecode=1P_OH_AL_2/0_Rucina_2

New Line.l(r:p13udm5696-p13ulv3466) Units=km Length=0.018031300000000004 bus1=p13udm5696.1.2 bus2=p13ulv3466.1.2 switch=n enabled=y phases=2 Linecode=1P_OH_AL_2/0_Rucina_2

New Line.l(r:p13udm5696-p13ulv90903) Units=km Length=0.010317 bus1=p13udm5696.1.2 bus2=p13ulv90903.1.2 switch=n enabled=y phases=2 Linecode=1P_OH_AL_2/0_Rucina_2

New Line.l(r:p13udm5696-p13udt1316lv) Units=km Length=0.0184302 bus1=p13udt1316lv.1.2 bus2=p13udm5696.1.2 switch=n enabled=y phases=2 Linecode=1P_OH_AL_2/0_Rucina_2

New Line.l(r:p13udm5702-p13ulv3446) Units=km Length=0.0134629 bus1=p13udm5702.1.2 bus2=p13ulv3446.1.2 switch=n enabled=y phases=2 Linecode=1P_OH_AL_2/0_Rucina_2

New Line.l(r:p13udm5702-p13ulv3452) Units=km Length=0.0131093 bus1=p13udm5702.1.2 bus2=p13ulv3452.1.2 switch=n enabled=y phases=2 Linecode=1P_OH_AL_2/0_Rucina_2

New Line.l(r:p13udm5702-p13udt1320lv) Units=km Length=0.0184802 bus1=p13udt1320lv.1.2 bus2=p13udm5702.1.2 switch=n enabled=y phases=2 Linecode=1P_OH_AL_2/0_Rucina_2_7

New Line.l(r:p13udm5704-p13ulv90973) Units=km Length=0.0142142 bus1=p13udm5704.1.2 bus2=p13ulv90973.1.2 switch=n enabled=y phases=2 Linecode=1P_OH_AL_2/0_Rucina_2

New Line.l(r:p13udm5704-p13udt1320lv) Units=km Length=0.0184702 bus1=p13udt1320lv.1.2 bus2=p13udm5704.1.2 switch=n enabled=y phases=2 Linecode=1P_OH_AL_2/0_Rucina_2

New Line.l(r:p13udt1321lv-p13ulv89064) Units=km Length=0.00801359 bus1=p13udt1321lv.1.2 bus2=p13ulv89064.1.2 switch=n enabled=y phases=2 Linecode=1P_UG_AL_1/0_Brenau_2

New Line.l(r:p13udt1321lv-p13ulv94070) Units=km Length=0.0136615 bus1=p13udt1321lv.1.2 bus2=p13ulv94070.1.2 switch=n enabled=y phases=2 Linecode=1P_UG_AL_1/0_Brenau_2

New Line.l(r:p13udm5705-p13ulv3447) Units=km Length=0.011823600000000002 bus1=p13udm5705.1.2 bus2=p13ulv3447.1.2 switch=n enabled=y phases=2 Linecode=1P_UG_AL_1/0_Brenau_2

New Line.l(r:p13udm5705-p13ulv94136) Units=km Length=0.011511 bus1=p13udm5705.1.2 bus2=p13ulv94136.1.2 switch=n enabled=y phases=2 Linecode=1P_UG_AL_1/0_Brenau_2

New Line.l(r:p13udm5705-p13udt1321lv) Units=km Length=0.0187001 bus1=p13udt1321lv.1.2 bus2=p13udm5705.1.2 switch=n enabled=y phases=2 Linecode=1P_UG_AL_4/0_Sweetbriar_2

New Line.l(r:p13udm5706-p13ulv15833) Units=km Length=0.009085640000000002 bus1=p13udm5706.1.2 bus2=p13ulv15833.1.2 switch=n enabled=y phases=2 Linecode=1P_UG_AL_4/0_Sweetbriar_2

New Line.l(r:p13udm5706-p13udt1321lv) Units=km Length=0.0187001 bus1=p13udt1321lv.1.2 bus2=p13udm5706.1.2 switch=n enabled=y phases=2 Linecode=1P_UG_AL_4/0_Sweetbriar_2

New Line.l(r:p13udm5710-p13ulv3448) Units=km Length=0.0112094 bus1=p13udm5710.1.2 bus2=p13ulv3448.1.2 switch=n enabled=y phases=2 Linecode=1P_UG_AL_1/0_Brenau_2

New Line.l(r:p13udm5710-p13ulv109060) Units=km Length=0.0131069 bus1=p13udm5710.1.2 bus2=p13ulv109060.1.2 switch=n enabled=y phases=2 Linecode=1P_UG_AL_4/0_Sweetbriar_2

New Line.l(r:p13udm5710-p13udt1322lv) Units=km Length=0.00984 bus1=p13udt1322lv.1.2 bus2=p13udm5710.1.2 switch=n enabled=y phases=2 Linecode=1P_UG_AL_4/0_Sweetbriar_2

New Line.l(r:p13udm5711-p13ulv89085) Units=km Length=0.0110908 bus1=p13udm5711.1.2 bus2=p13ulv89085.1.2 switch=n enabled=y phases=2 Linecode=1P_UG_AL_2/0_Converse_2

New Line.l(r:p13udm5711-p13ulv89135) Units=km Length=0.0131097 bus1=p13udm5711.1.2 bus2=p13ulv89135.1.2 switch=n enabled=y phases=2 Linecode=1P_UG_AL_2/0_Converse_2

New Line.l(r:p13udm5711-p13udt1322lv) Units=km Length=0.00984 bus1=p13udt1322lv.1.2 bus2=p13udm5711.1.2 switch=n enabled=y phases=2 Linecode=1P_UG_AL_4/0_Sweetbriar_2

New Line.l(r:p13udt1324lv-p13ulv89067) Units=km Length=0.040764 bus1=p13udt1324lv.1.2 bus2=p13ulv89067.1.2 switch=n enabled=y phases=2 Linecode=1P_OH_AL_4/0_Zuzara_2

New Line.l(r:p13udm5721-p13ulv3450) Units=km Length=0.0155643 bus1=p13udm5721.1.2 bus2=p13ulv3450.1.2 switch=n enabled=y phases=2 Linecode=1P_OH_AL_2/0_Rucina_2

New Line.l(r:p13udm5721-p13ulv89062) Units=km Length=0.0362708 bus1=p13udm5721.1.2 bus2=p13ulv89062.1.2 switch=n enabled=y phases=2 Linecode=1P_OH_AL_4/0_Zuzara_2

New Line.l(r:p13udm5721-p13ulv90935) Units=km Length=0.0159531 bus1=p13udm5721.1.2 bus2=p13ulv90935.1.2 switch=n enabled=y phases=2 Linecode=1P_OH_AL_2/0_Rucina_2

New Line.l(r:p13udm5721-p13udt1324lv) Units=km Length=0.0184802 bus1=p13udt1324lv.1.2 bus2=p13udm5721.1.2 switch=n enabled=y phases=2 Linecode=1P_OH_AL_2/0_Rucina_2_7

New Line.l(r:p13udm5725-p13ulv90948) Units=km Length=0.0176023 bus1=p13udm5725.1.2 bus2=p13ulv90948.1.2 switch=n enabled=y phases=2 Linecode=1P_OH_AL_2/0_Rucina_2

New Line.l(r:p13udm5725-p13udt1324lv) Units=km Length=0.0184802 bus1=p13udt1324lv.1.2 bus2=p13udm5725.1.2 switch=n enabled=y phases=2 Linecode=1P_OH_AL_2/0_Rucina_2

New Line.l(r:p13udt1325lv-p13ulv89045) Units=km Length=0.0159211 bus1=p13udt1325lv.1.2 bus2=p13ulv89045.1.2 switch=n enabled=y phases=2 Linecode=1P_OH_AL_2/0_Rucina_2

New Line.l(r:p13udt1325lv-p13ulv89046) Units=km Length=0.0151301 bus1=p13udt1325lv.1.2 bus2=p13ulv89046.1.2 switch=n enabled=y phases=2 Linecode=1P_OH_AL_2/0_Rucina_2

New Line.l(r:p13udt1325lv-p13ulv90946) Units=km Length=0.0188684 bus1=p13udt1325lv.1.2 bus2=p13ulv90946.1.2 switch=n enabled=y phases=2 Linecode=1P_OH_AL_2/0_Rucina_2

New Line.l(r:p13udm5726-p13ulv3451) Units=km Length=0.0154791 bus1=p13udm5726.1.2 bus2=p13ulv3451.1.2 switch=n enabled=y phases=2 Linecode=1P_OH_AL_2/0_Rucina_2

New Line.l(r:p13udm5726-p13ulv90943) Units=km Length=0.016610500000000004 bus1=p13udm5726.1.2 bus2=p13ulv90943.1.2 switch=n enabled=y phases=2 Linecode=1P_OH_AL_2/0_Rucina_2

New Line.l(r:p13udm5726-p13udt1325lv) Units=km Length=0.0184802 bus1=p13udt1325lv.1.2 bus2=p13udm5726.1.2 switch=n enabled=y phases=2 Linecode=1P_OH_AL_2/0_Rucina_2

New Line.l(r:p13udt1326lv-p13ulv15837) Units=km Length=0.00991789 bus1=p13udt1326lv.1.2 bus2=p13ulv15837.1.2 switch=n enabled=y phases=2 Linecode=1P_UG_AL_1/0_Brenau_2

New Line.l(r:p13udt1326lv-p13ulv89063) Units=km Length=0.0247652 bus1=p13udt1326lv.1.2 bus2=p13ulv89063.1.2 switch=n enabled=y phases=2 Linecode=1P_UG_AL_1/0_Brenau_2

New Line.l(r:p13udm5731-p13ulv3453) Units=km Length=0.007464190000000001 bus1=p13udm5731.1.2 bus2=p13ulv3453.1.2 switch=n enabled=y phases=2 Linecode=1P_UG_AL_4/0_Sweetbriar_2

New Line.l(r:p13udm5731-p13udt1326lv) Units=km Length=0.00935002 bus1=p13udt1326lv.1.2 bus2=p13udm5731.1.2 switch=n enabled=y phases=2 Linecode=1P_UG_AL_4/0_Sweetbriar_2

New Line.l(r:p13udm5734-p13ulv89068) Units=km Length=0.0352356 bus1=p13udm5734.1.2 bus2=p13ulv89068.1.2 switch=n enabled=y phases=2 Linecode=1P_UG_AL_1/0_Brenau_2

New Line.l(r:p13udm5735-p13ulv89072) Units=km Length=0.0115239 bus1=p13udm5735.1.2 bus2=p13ulv89072.1.2 switch=n enabled=y phases=2 Linecode=1P_UG_AL_1/0_Brenau_2

New Line.l(r:p13udm5734-p13udm5735) Units=km Length=0.00935005 bus1=p13udm5734.1.2 bus2=p13udm5735.1.2 switch=n enabled=y phases=2 Linecode=1P_UG_AL_1/0_Brenau_2

New Line.l(r:p13udm5734-p13udt1326lv) Units=km Length=0.00935005 bus1=p13udt1326lv.1.2 bus2=p13udm5734.1.2 switch=n enabled=y phases=2 Linecode=1P_UG_AL_1/0_Brenau_2

New Line.l(r:p13udt1327lv-p13ulv3454) Units=km Length=0.0113374 bus1=p13udt1327lv.1.2 bus2=p13ulv3454.1.2 switch=n enabled=y phases=2 Linecode=1P_OH_AL_2/0_Rucina_2

New Line.l(r:p13udt1327lv-p13ulv90974) Units=km Length=0.0152438 bus1=p13udt1327lv.1.2 bus2=p13ulv90974.1.2 switch=n enabled=y phases=2 Linecode=1P_OH_AL_2/0_Rucina_2

New Line.l(r:p13udt1328lv-p13ulv3455) Units=km Length=0.0103893 bus1=p13udt1328lv.1.2 bus2=p13ulv3455.1.2 switch=n enabled=y phases=2 Linecode=1P_UG_AL_1/0_Brenau_2

New Line.l(r:p13udm5739-p13ulv90862) Units=km Length=0.0102646 bus1=p13udm5739.1.2 bus2=p13ulv90862.1.2 switch=n enabled=y phases=2 Linecode=1P_OH_AL_2/0_Rucina_2

New Line.l(r:p13udm5740-p13ulv90871) Units=km Length=0.017213 bus1=p13udm5740.1.2 bus2=p13ulv90871.1.2 switch=n enabled=y phases=2 Linecode=1P_OH_AL_2/0_Rucina_2

New Line.l(r:p13udm5739-p13udm5740) Units=km Length=0.012120100000000002 bus1=p13udm5739.1.2 bus2=p13udm5740.1.2 switch=n enabled=y phases=2 Linecode=1P_OH_AL_2/0_Rucina_2

New Line.l(r:p13udm5739-p13udt1328lv) Units=km Length=0.0216916 bus1=p13udt1328lv.1.2 bus2=p13udm5739.1.2 switch=n enabled=y phases=2 Linecode=1P_OH_AL_2/0_Rucina_2

New Line.l(r:p13udm5742-p13ulv90926) Units=km Length=0.0123832 bus1=p13udm5742.1.2 bus2=p13ulv90926.1.2 switch=n enabled=y phases=2 Linecode=1P_UG_AL_1/0_Brenau_2

New Line.l(r:p13udm5741-p13ulv90915) Units=km Length=0.00645591 bus1=p13udm5741.1.2 bus2=p13ulv90915.1.2 switch=n enabled=y phases=2 Linecode=1P_UG_AL_4/0_Sweetbriar_2

New Line.l(r:p13udm5741-p13udm5742) Units=km Length=0.00957169 bus1=p13udm5742.1.2 bus2=p13udm5741.1.2 switch=n enabled=y phases=2 Linecode=1P_UG_AL_4/0_Sweetbriar_2

New Line.l(r:p13udm5742-p13udt1328lv) Units=km Length=0.0191332 bus1=p13udt1328lv.1.2 bus2=p13udm5742.1.2 switch=n enabled=y phases=2 Linecode=1P_UG_AL_4/0_Sweetbriar_2

New Line.l(r:p13udt1329lv-p13ulv3456) Units=km Length=0.012675600000000002 bus1=p13udt1329lv.1.2 bus2=p13ulv3456.1.2 switch=n enabled=y phases=2 Linecode=1P_UG_AL_1/0_Brenau_2

New Line.l(r:p13udm5744-p13ulv3470) Units=km Length=0.0103548 bus1=p13udm5744.1.2 bus2=p13ulv3470.1.2 switch=n enabled=y phases=2 Linecode=1P_UG_AL_1/0_Brenau_2_2

New Line.l(r:p13udm5744-p13ulv15811) Units=km Length=0.0104351 bus1=p13udm5744.1.2 bus2=p13ulv15811.1.2 switch=n enabled=y phases=2 Linecode=1P_UG_AL_4/0_Sweetbriar_2

New Line.l(r:p13udm5744-p13udt1329lv) Units=km Length=0.00906014 bus1=p13udt1329lv.1.2 bus2=p13udm5744.1.2 switch=n enabled=y phases=2 Linecode=1P_UG_AL_4/0_Sweetbriar_2_1

New Line.l(r:p13udm5746-p13ulv90813) Units=km Length=0.0122703 bus1=p13udm5746.1.2 bus2=p13ulv90813.1.2 switch=n enabled=y phases=2 Linecode=1P_UG_AL_1/0_Brenau_2

New Line.l(r:p13udm5746-p13ulv95590) Units=km Length=0.0133693 bus1=p13udm5746.1.2 bus2=p13ulv95590.1.2 switch=n enabled=y phases=2 Linecode=1P_UG_AL_1/0_Brenau_2

New Line.l(r:p13udm5746-p13udt1329lv) Units=km Length=0.00907009 bus1=p13udt1329lv.1.2 bus2=p13udm5746.1.2 switch=n enabled=y phases=2 Linecode=1P_UG_AL_1/0_Brenau_2

New Line.l(r:p13udt1330lv-p13ulv3458) Units=km Length=0.00731864 bus1=p13udt1330lv.1.2 bus2=p13ulv3458.1.2 switch=n enabled=y phases=2 Linecode=1P_UG_AL_1/0_Brenau_2

New Line.l(r:p13udm5748-p13ulv3457) Units=km Length=0.0137323 bus1=p13udm5748.1.2 bus2=p13ulv3457.1.2 switch=n enabled=y phases=2 Linecode=1P_UG_AL_1/0_Brenau_2

New Line.l(r:p13udm5748-p13ulv90814) Units=km Length=0.0135956 bus1=p13udm5748.1.2 bus2=p13ulv90814.1.2 switch=n enabled=y phases=2 Linecode=1P_UG_AL_1/0_Brenau_2

New Line.l(r:p13udm5748-p13udt1330lv) Units=km Length=0.0251814 bus1=p13udt1330lv.1.2 bus2=p13udm5748.1.2 switch=n enabled=y phases=2 Linecode=1P_UG_AL_1/0_Brenau_2

New Line.l(r:p13udm5753-p13ulv92681) Units=km Length=0.0119318 bus1=p13udm5753.1.2 bus2=p13ulv92681.1.2 switch=n enabled=y phases=2 Linecode=1P_UG_AL_1/0_Brenau_2

New Line.l(r:p13udm5751-p13ulv90792) Units=km Length=0.011412500000000003 bus1=p13udm5751.1.2 bus2=p13ulv90792.1.2 switch=n enabled=y phases=2 Linecode=1P_UG_AL_1/0_Brenau_2

New Line.l(r:p13udm5751-p13udm5753) Units=km Length=0.00944005 bus1=p13udm5753.1.2 bus2=p13udm5751.1.2 switch=n enabled=y phases=2 Linecode=1P_UG_AL_1/0_Brenau_2

New Line.l(r:p13udm5753-p13udt1330lv) Units=km Length=0.0324498 bus1=p13udt1330lv.1.2 bus2=p13udm5753.1.2 switch=n enabled=y phases=2 Linecode=1P_UG_AL_1/0_Brenau_2

New Line.l(r:p13udm5754-p13ulv92682) Units=km Length=0.00991435 bus1=p13udm5754.1.2 bus2=p13ulv92682.1.2 switch=n enabled=y phases=2 Linecode=1P_UG_AL_1/0_Brenau_2

New Line.l(r:p13udm5750-p13ulv90787) Units=km Length=0.009866640000000001 bus1=p13udm5750.1.2 bus2=p13ulv90787.1.2 switch=n enabled=y phases=2 Linecode=1P_UG_AL_2/0_Converse_2

New Line.l(r:p13udm5750-p13ulv92685) Units=km Length=0.0114891 bus1=p13udm5750.1.2 bus2=p13ulv92685.1.2 switch=n enabled=y phases=2 Linecode=1P_UG_AL_1/0_Brenau_2

New Line.l(r:p13udm5750-p13udm5754) Units=km Length=0.0230182 bus1=p13udm5754.1.2 bus2=p13udm5750.1.2 switch=n enabled=y phases=2 Linecode=1P_UG_AL_4/0_Sweetbriar_2

New Line.l(r:p13udm5754-p13udt1330lv) Units=km Length=0.00854123 bus1=p13udt1330lv.1.2 bus2=p13udm5754.1.2 switch=n enabled=y phases=2 Linecode=1P_UG_AL_4/0_Sweetbriar_2

New Line.l(r:p13udt1331lv-p13ulv3460) Units=km Length=0.0121554 bus1=p13udt1331lv.1.2 bus2=p13ulv3460.1.2 switch=n enabled=y phases=2 Linecode=1P_UG_AL_1/0_Brenau_2

New Line.l(r:p13udt1331lv-p13ulv3461) Units=km Length=0.0214856 bus1=p13udt1331lv.1.2 bus2=p13ulv3461.1.2 switch=n enabled=y phases=2 Linecode=1P_UG_AL_1/0_Brenau_2

New Line.l(r:p13udm5756-p13ulv3459) Units=km Length=0.00975287 bus1=p13udm5756.1.2 bus2=p13ulv3459.1.2 switch=n enabled=y phases=2 Linecode=1P_UG_AL_1/0_Brenau_2

New Line.l(r:p13udm5756-p13udt1331lv) Units=km Length=0.0298214 bus1=p13udt1331lv.1.2 bus2=p13udm5756.1.2 switch=n enabled=y phases=2 Linecode=1P_UG_AL_1/0_Brenau_2

New Line.l(r:p13udm5759-p13ulv3467) Units=km Length=0.0138898 bus1=p13udm5759.1.2 bus2=p13ulv3467.1.2 switch=n enabled=y phases=2 Linecode=1P_UG_AL_4/0_Sweetbriar_2

New Line.l(r:p13udm5759-p13ulv90817) Units=km Length=0.0124646 bus1=p13udm5759.1.2 bus2=p13ulv90817.1.2 switch=n enabled=y phases=2 Linecode=1P_UG_AL_1/0_Brenau_2

New Line.l(r:p13udm5759-p13udt1331lv) Units=km Length=0.00994041 bus1=p13udt1331lv.1.2 bus2=p13udm5759.1.2 switch=n enabled=y phases=2 Linecode=1P_UG_AL_4/0_Sweetbriar_2

New Line.l(r:p13udt1333lv-p13ulv3469) Units=km Length=0.00933279 bus1=p13udt1333lv.1.2 bus2=p13ulv3469.1.2 switch=n enabled=y phases=2 Linecode=1P_UG_AL_4/0_Sweetbriar_2

New Line.l(r:p13udt1335lv-p13ulv15765) Units=km Length=0.013064900000000003 bus1=p13udt1335lv.1.2 bus2=p13ulv15765.1.2 switch=n enabled=y phases=2 Linecode=1P_UG_AL_1/0_Brenau_2

New Line.l(r:p13udt1335lv-p13ulv92523) Units=km Length=0.012670900000000002 bus1=p13udt1335lv.1.2 bus2=p13ulv92523.1.2 switch=n enabled=y phases=2 Linecode=1P_UG_AL_1/0_Brenau_2

New Line.l(r:p13udt1335lv-p13ulv92533) Units=km Length=0.0420324 bus1=p13udt1335lv.1.2 bus2=p13ulv92533.1.2 switch=n enabled=y phases=2 Linecode=1P_UG_AL_1/0_Brenau_2

New Line.l(r:p13udm5768-p13ulv3476) Units=km Length=0.0127025 bus1=p13udm5768.1.2 bus2=p13ulv3476.1.2 switch=n enabled=y phases=2 Linecode=1P_UG_AL_1/0_Brenau_2

New Line.l(r:p13udm5768-p13udt1335lv) Units=km Length=0.00943002 bus1=p13udt1335lv.1.2 bus2=p13udm5768.1.2 switch=n enabled=y phases=2 Linecode=1P_UG_AL_1/0_Brenau_2

New Line.l(r:p13udm5769-p13ulv15764) Units=km Length=0.0119593 bus1=p13udm5769.1.2 bus2=p13ulv15764.1.2 switch=n enabled=y phases=2 Linecode=1P_UG_AL_2/0_Converse_2

New Line.l(r:p13udm5769-p13ulv92504) Units=km Length=0.0136007 bus1=p13udm5769.1.2 bus2=p13ulv92504.1.2 switch=n enabled=y phases=2 Linecode=1P_UG_AL_1/0_Brenau_2

New Line.l(r:p13udm5772-p13ulv92513) Units=km Length=0.0404146 bus1=p13udm5772.1.2 bus2=p13ulv92513.1.2 switch=n enabled=y phases=2 Linecode=1P_UG_AL_1/0_Brenau_2

New Line.l(r:p13udm5769-p13udm5772) Units=km Length=0.00943002 bus1=p13udm5769.1.2 bus2=p13udm5772.1.2 switch=n enabled=y phases=2 Linecode=1P_UG_AL_1/0_Brenau_2

New Line.l(r:p13udm5769-p13udt1335lv) Units=km Length=0.00942005 bus1=p13udt1335lv.1.2 bus2=p13udm5769.1.2 switch=n enabled=y phases=2 Linecode=1P_UG_AL_4/0_Sweetbriar_2

New Line.l(r:p13udt1336lv-p13ulv3477) Units=km Length=0.0131932 bus1=p13udt1336lv.1.2 bus2=p13ulv3477.1.2 switch=n enabled=y phases=2 Linecode=1P_UG_AL_1/0_Brenau_2

New Line.l(r:p13udt1336lv-p13ulv95504) Units=km Length=0.0125187 bus1=p13udt1336lv.1.2 bus2=p13ulv95504.1.2 switch=n enabled=y phases=2 Linecode=1P_UG_AL_1/0_Brenau_2

New Line.l(r:p13udm5776-p13ulv92620) Units=km Length=0.0139115 bus1=p13udm5776.1.2 bus2=p13ulv92620.1.2 switch=n enabled=y phases=2 Linecode=1P_UG_AL_1/0_Brenau_2

New Line.l(r:p13udm5776-p13ulv95512) Units=km Length=0.0133463 bus1=p13udm5776.1.2 bus2=p13ulv95512.1.2 switch=n enabled=y phases=2 Linecode=1P_UG_AL_1/0_Brenau_2

New Line.l(r:p13udm5776-p13udt1336lv) Units=km Length=0.00942002 bus1=p13udt1336lv.1.2 bus2=p13udm5776.1.2 switch=n enabled=y phases=2 Linecode=1P_UG_AL_1/0_Brenau_2

New Line.l(r:p13udm5777-p13ulv94133) Units=km Length=0.0140894 bus1=p13udm5777.1.2 bus2=p13ulv94133.1.2 switch=n enabled=y phases=2 Linecode=1P_UG_AL_1/0_Brenau_2

New Line.l(r:p13udm5777-p13udt1336lv) Units=km Length=0.009430050000000002 bus1=p13udt1336lv.1.2 bus2=p13udm5777.1.2 switch=n enabled=y phases=2 Linecode=1P_UG_AL_1/0_Brenau_2

New Line.l(r:p13udt1337lv-p13ulv94130) Units=km Length=0.013303600000000002 bus1=p13udt1337lv.1.2 bus2=p13ulv94130.1.2 switch=n enabled=y phases=2 Linecode=1P_UG_AL_1/0_Brenau_2

New Line.l(r:p13udt1337lv-p13ulv94324) Units=km Length=0.013655000000000002 bus1=p13udt1337lv.1.2 bus2=p13ulv94324.1.2 switch=n enabled=y phases=2 Linecode=1P_UG_AL_1/0_Brenau_2

New Line.l(r:p13udm5780-p13ulv3478) Units=km Length=0.0134133 bus1=p13udm5780.1.2 bus2=p13ulv3478.1.2 switch=n enabled=y phases=2 Linecode=1P_UG_AL_4/0_Sweetbriar_2

New Line.l(r:p13udm5780-p13ulv97311) Units=km Length=0.0141578 bus1=p13udm5780.1.2 bus2=p13ulv97311.1.2 switch=n enabled=y phases=2 Linecode=1P_UG_AL_2/0_Converse_2

New Line.l(r:p13udm5780-p13udt1337lv) Units=km Length=0.00886001 bus1=p13udt1337lv.1.2 bus2=p13udm5780.1.2 switch=n enabled=y phases=2 Linecode=1P_UG_AL_4/0_Sweetbriar_2

New Line.l(r:p13udt1338lv-p13ulv94131) Units=km Length=0.014134 bus1=p13udt1338lv.1.2 bus2=p13ulv94131.1.2 switch=n enabled=y phases=2 Linecode=1P_UG_AL_2/0_Converse_2

New Line.l(r:p13udm5784-p13ulv3479) Units=km Length=0.0134511 bus1=p13udm5784.1.2 bus2=p13ulv3479.1.2 switch=n enabled=y phases=2 Linecode=1P_UG_AL_2/0_Converse_2

New Line.l(r:p13udm5785-p13ulv92484) Units=km Length=0.0132888 bus1=p13udm5785.1.2 bus2=p13ulv92484.1.2 switch=n enabled=y phases=2 Linecode=1P_UG_AL_1/0_Brenau_2

New Line.l(r:p13udm5785-p13ulv94132) Units=km Length=0.011888000000000001 bus1=p13udm5785.1.2 bus2=p13ulv94132.1.2 switch=n enabled=y phases=2 Linecode=1P_UG_AL_1/0_Brenau_2

New Line.l(r:p13udm5784-p13udm5785) Units=km Length=0.00887001 bus1=p13udm5784.1.2 bus2=p13udm5785.1.2 switch=n enabled=y phases=2 Linecode=1P_UG_AL_2/0_Converse_2

New Line.l(r:p13udm5784-p13udt1338lv) Units=km Length=0.00886001 bus1=p13udt1338lv.1.2 bus2=p13udm5784.1.2 switch=n enabled=y phases=2 Linecode=1P_UG_AL_4/0_Sweetbriar_2

New Line.l(r:p13udm5788-p13ulv97275) Units=km Length=0.012293 bus1=p13udm5788.1.2 bus2=p13ulv97275.1.2 switch=n enabled=y phases=2 Linecode=1P_UG_AL_1/0_Brenau_2

New Line.l(r:p13udm5788-p13udt1338lv) Units=km Length=0.0708898 bus1=p13udt1338lv.1.2 bus2=p13udm5788.1.2 switch=n enabled=y phases=2 Linecode=1P_UG_AL_1/0_Brenau_2

New Line.l(r:p13udt1339lv-p13ulv3480) Units=km Length=0.0121844 bus1=p13udt1339lv.1.2 bus2=p13ulv3480.1.2 switch=n enabled=y phases=2 Linecode=1P_UG_AL_1/0_Brenau_2

New Line.l(r:p13udt1339lv-p13ulv92603) Units=km Length=0.0131927 bus1=p13udt1339lv.1.2 bus2=p13ulv92603.1.2 switch=n enabled=y phases=2 Linecode=1P_UG_AL_1/0_Brenau_2

New Line.l(r:p13udm5790-p13ulv3481) Units=km Length=0.0125508 bus1=p13udm5790.1.2 bus2=p13ulv3481.1.2 switch=n enabled=y phases=2 Linecode=1P_UG_AL_1/0_Brenau_2

New Line.l(r:p13udm5790-p13ulv92564) Units=km Length=0.0120682 bus1=p13udm5790.1.2 bus2=p13ulv92564.1.2 switch=n enabled=y phases=2 Linecode=1P_UG_AL_1/0_Brenau_2

New Line.l(r:p13udm5790-p13udt1339lv) Units=km Length=0.00980025 bus1=p13udt1339lv.1.2 bus2=p13udm5790.1.2 switch=n enabled=y phases=2 Linecode=1P_UG_AL_4/0_Sweetbriar_2

New Line.l(r:p13udt7121lv-p13ulv15690) Units=km Length=0.0116704 bus1=p13udt7121lv.1.2 bus2=p13ulv15690.1.2 switch=n enabled=y phases=2 Linecode=1P_UG_AL_1/0_Brenau_2

New Line.l(r:p13udm30727-p13ulv16323) Units=km Length=0.0116919 bus1=p13udm30727.1.2 bus2=p13ulv16323.1.2 switch=n enabled=y phases=2 Linecode=1P_UG_AL_1/0_Brenau_2

New Line.l(r:p13udm30733-p13ulv97387) Units=km Length=0.00867613 bus1=p13udm30733.1.2 bus2=p13ulv97387.1.2 switch=n enabled=y phases=2 Linecode=1P_UG_AL_1/0_Brenau_2

New Line.l(r:p13udm30727-p13udm30733) Units=km Length=0.00846433 bus1=p13udm30727.1.2 bus2=p13udm30733.1.2 switch=n enabled=y phases=2 Linecode=1P_UG_AL_1/0_Brenau_2

New Line.l(r:p13udm30727-p13udt7121lv) Units=km Length=0.008478 bus1=p13udt7121lv.1.2 bus2=p13udm30727.1.2 switch=n enabled=y phases=2 Linecode=1P_UG_AL_1/0_Brenau_2

New Line.l(r:p13udm30728-p13ulv95471) Units=km Length=0.0468086 bus1=p13udm30728.1.2 bus2=p13ulv95471.1.2 switch=n enabled=y phases=2 Linecode=1P_UG_AL_1/0_Brenau_2

New Line.l(r:p13udm30728-p13ulv97321) Units=km Length=0.0368547 bus1=p13udm30728.1.2 bus2=p13ulv97321.1.2 switch=n enabled=y phases=2 Linecode=1P_UG_AL_1/0_Brenau_2

New Line.l(r:p13udm30728-p13ulv97331) Units=km Length=0.0143178 bus1=p13udm30728.1.2 bus2=p13ulv97331.1.2 switch=n enabled=y phases=2 Linecode=1P_UG_AL_1/0_Brenau_2

New Line.l(r:p13udm30728-p13ulv97378) Units=km Length=0.00991921 bus1=p13udm30728.1.2 bus2=p13ulv97378.1.2 switch=n enabled=y phases=2 Linecode=1P_UG_AL_1/0_Brenau_2

New Line.l(r:p13udm30731-p13ulv97370) Units=km Length=0.0110705 bus1=p13udm30731.1.2 bus2=p13ulv97370.1.2 switch=n enabled=y phases=2 Linecode=1P_UG_AL_1/0_Brenau_2

New Line.l(r:p13udm30728-p13udm30731) Units=km Length=0.00944545 bus1=p13udm30728.1.2 bus2=p13udm30731.1.2 switch=n enabled=y phases=2 Linecode=1P_UG_AL_1/0_Brenau_2

New Line.l(r:p13udm30728-p13udt7121lv) Units=km Length=0.00846433 bus1=p13udt7121lv.1.2 bus2=p13udm30728.1.2 switch=n enabled=y phases=2 Linecode=1P_UG_AL_4/0_Sweetbriar_2

New Line.l(r:p13udt7122lv-p13ulv15692) Units=km Length=0.0140286 bus1=p13udt7122lv.1.2 bus2=p13ulv15692.1.2 switch=n enabled=y phases=2 Linecode=1P_UG_AL_1/0_Brenau_2

New Line.l(r:p13udt7122lv-p13ulv15724) Units=km Length=0.0125556 bus1=p13udt7122lv.1.2 bus2=p13ulv15724.1.2 switch=n enabled=y phases=2 Linecode=1P_UG_AL_1/0_Brenau_2

New Line.l(r:p13udm30737-p13ulv15725) Units=km Length=0.0133701 bus1=p13udm30737.1.2 bus2=p13ulv15725.1.2 switch=n enabled=y phases=2 Linecode=1P_UG_AL_1/0_Brenau_2

New Line.l(r:p13udm30737-p13ulv97244) Units=km Length=0.0340689 bus1=p13udm30737.1.2 bus2=p13ulv97244.1.2 switch=n enabled=y phases=2 Linecode=1P_UG_AL_1/0_Brenau_2

New Line.l(r:p13udm30737-p13ulv97252) Units=km Length=0.013087200000000002 bus1=p13udm30737.1.2 bus2=p13ulv97252.1.2 switch=n enabled=y phases=2 Linecode=1P_UG_AL_1/0_Brenau_2

New Line.l(r:p13udm30741-p13ulv97281) Units=km Length=0.0135182 bus1=p13udm30741.1.2 bus2=p13ulv97281.1.2 switch=n enabled=y phases=2 Linecode=1P_UG_AL_1/0_Brenau_2

New Line.l(r:p13udm30738-p13ulv97230) Units=km Length=0.0414725 bus1=p13udm30738.1.2 bus2=p13ulv97230.1.2 switch=n enabled=y phases=2 Linecode=1P_UG_AL_1/0_Brenau_2

New Line.l(r:p13udm30738-p13udm30741) Units=km Length=0.00936265 bus1=p13udm30741.1.2 bus2=p13udm30738.1.2 switch=n enabled=y phases=2 Linecode=1P_UG_AL_1/0_Brenau_2

New Line.l(r:p13udm30737-p13udm30741) Units=km Length=0.00936265 bus1=p13udm30737.1.2 bus2=p13udm30741.1.2 switch=n enabled=y phases=2 Linecode=1P_UG_AL_1/0_Brenau_2

New Line.l(r:p13udm30737-p13udt7122lv) Units=km Length=0.00935761 bus1=p13udt7122lv.1.2 bus2=p13udm30737.1.2 switch=n enabled=y phases=2 Linecode=1P_UG_AL_4/0_Sweetbriar_2

New Line.l(r:p13udm30742-p13ulv97309) Units=km Length=0.0134925 bus1=p13udm30742.1.2 bus2=p13ulv97309.1.2 switch=n enabled=y phases=2 Linecode=1P_UG_AL_1/0_Brenau_2

New Line.l(r:p13udm30734-p13ulv15691) Units=km Length=0.0136069 bus1=p13udm30734.1.2 bus2=p13ulv15691.1.2 switch=n enabled=y phases=2 Linecode=1P_UG_AL_1/0_Brenau_2

New Line.l(r:p13udm30734-p13udm30742) Units=km Length=0.00935403 bus1=p13udm30742.1.2 bus2=p13udm30734.1.2 switch=n enabled=y phases=2 Linecode=1P_UG_AL_1/0_Brenau_2

New Line.l(r:p13udm30742-p13udt7122lv) Units=km Length=0.00936265 bus1=p13udt7122lv.1.2 bus2=p13udm30742.1.2 switch=n enabled=y phases=2 Linecode=1P_UG_AL_1/0_Brenau_2

New Line.l(r:p13udm30743-p13ulv15693) Units=km Length=0.0207151 bus1=p13udm30743.1.2 bus2=p13ulv15693.1.2 switch=n enabled=y phases=2 Linecode=1P_UG_AL_4/0_Sweetbriar_2

New Line.l(r:p13udm30743-p13ulv97265) Units=km Length=0.0134019 bus1=p13udm30743.1.2 bus2=p13ulv97265.1.2 switch=n enabled=y phases=2 Linecode=1P_UG_AL_1/0_Brenau_2

New Line.l(r:p13udm30746-p13ulv97234) Units=km Length=0.0141388 bus1=p13udm30746.1.2 bus2=p13ulv97234.1.2 switch=n enabled=y phases=2 Linecode=1P_UG_AL_1/0_Brenau_2

New Line.l(r:p13udm30743-p13udm30746) Units=km Length=0.00894588 bus1=p13udm30743.1.2 bus2=p13udm30746.1.2 switch=n enabled=y phases=2 Linecode=1P_UG_AL_1/0_Brenau_2

New Line.l(r:p13udm30743-p13udt7123lv) Units=km Length=0.00894083 bus1=p13udt7123lv.1.2 bus2=p13udm30743.1.2 switch=n enabled=y phases=2 Linecode=1P_UG_AL_4/0_Sweetbriar_2

New Line.l(r:p13udm30744-p13ulv15694) Units=km Length=0.010621600000000002 bus1=p13udm30744.1.2 bus2=p13ulv15694.1.2 switch=n enabled=y phases=2 Linecode=1P_UG_AL_1/0_Brenau_2

New Line.l(r:p13udm30744-p13ulv97232) Units=km Length=0.012361600000000002 bus1=p13udm30744.1.2 bus2=p13ulv97232.1.2 switch=n enabled=y phases=2 Linecode=1P_UG_AL_2/0_Converse_2

New Line.l(r:p13udm30744-p13udt7123lv) Units=km Length=0.00894588 bus1=p13udt7123lv.1.2 bus2=p13udm30744.1.2 switch=n enabled=y phases=2 Linecode=1P_UG_AL_4/0_Sweetbriar_2

New Line.l(r:p13udm30748-p13ulv15695) Units=km Length=0.0141686 bus1=p13udm30748.1.2 bus2=p13ulv15695.1.2 switch=n enabled=y phases=2 Linecode=1P_UG_AL_1/0_Brenau_2

New Line.l(r:p13udm30751-p13ulv97261) Units=km Length=0.0333191 bus1=p13udm30751.1.2 bus2=p13ulv97261.1.2 switch=n enabled=y phases=2 Linecode=1P_UG_AL_1/0_Brenau_2

New Line.l(r:p13udm30748-p13udm30751) Units=km Length=0.026832600000000005 bus1=p13udm30748.1.2 bus2=p13udm30751.1.2 switch=n enabled=y phases=2 Linecode=1P_UG_AL_1/0_Brenau_2

New Line.l(r:p13udm30748-p13udt7124lv) Units=km Length=0.00894588 bus1=p13udt7124lv.1.2 bus2=p13udm30748.1.2 switch=n enabled=y phases=2 Linecode=1P_UG_AL_4/0_Sweetbriar_2

New Line.l(r:p13udm30749-p13ulv97199) Units=km Length=0.0128914 bus1=p13udm30749.1.2 bus2=p13ulv97199.1.2 switch=n enabled=y phases=2 Linecode=1P_UG_AL_1/0_Brenau_2

New Line.l(r:p13udm30749-p13ulv97223) Units=km Length=0.0186409 bus1=p13udm30749.1.2 bus2=p13ulv97223.1.2 switch=n enabled=y phases=2 Linecode=1P_UG_AL_1/0_Brenau_2

New Line.l(r:p13udm30749-p13ulv99088) Units=km Length=0.020245800000000005 bus1=p13udm30749.1.2 bus2=p13ulv99088.1.2 switch=n enabled=y phases=2 Linecode=1P_UG_AL_4/0_Sweetbriar_2

New Line.l(r:p13udm30749-p13udt7124lv) Units=km Length=0.00893725 bus1=p13udt7124lv.1.2 bus2=p13udm30749.1.2 switch=n enabled=y phases=2 Linecode=1P_UG_AL_4/0_Sweetbriar_2

New Line.l(r:p13udm30753-p13ulv15696) Units=km Length=0.014300500000000002 bus1=p13udm30753.1.2 bus2=p13ulv15696.1.2 switch=n enabled=y phases=2 Linecode=1P_UG_AL_1/0_Brenau_2

New Line.l(r:p13udm30754-p13ulv15697) Units=km Length=0.0132535 bus1=p13udm30754.1.2 bus2=p13ulv15697.1.2 switch=n enabled=y phases=2 Linecode=1P_UG_AL_1/0_Brenau_2

New Line.l(r:p13udm30755-p13ulv98919) Units=km Length=0.0105746 bus1=p13udm30755.1.2 bus2=p13ulv98919.1.2 switch=n enabled=y phases=2 Linecode=1P_UG_AL_1/0_Brenau_2

New Line.l(r:p13udm30756-p13ulv98932) Units=km Length=0.0122506 bus1=p13udm30756.1.2 bus2=p13ulv98932.1.2 switch=n enabled=y phases=2 Linecode=1P_UG_AL_1/0_Brenau_2

New Line.l(r:p13udm30756-p13ulv98937) Units=km Length=0.0083591 bus1=p13udm30756.1.2 bus2=p13ulv98937.1.2 switch=n enabled=y phases=2 Linecode=1P_UG_AL_1/0_Brenau_2

New Line.l(r:p13udm30755-p13udm30756) Units=km Length=0.0152176 bus1=p13udm30755.1.2 bus2=p13udm30756.1.2 switch=n enabled=y phases=2 Linecode=1P_UG_AL_4/0_Sweetbriar_2

New Line.l(r:p13udm30754-p13udm30755) Units=km Length=0.0187592 bus1=p13udm30754.1.2 bus2=p13udm30755.1.2 switch=n enabled=y phases=2 Linecode=1P_UG_AL_4/0_Sweetbriar_2

New Line.l(r:p13udm30761-p13ulv100792) Units=km Length=0.0118213 bus1=p13udm30761.1.2 bus2=p13ulv100792.1.2 switch=n enabled=y phases=2 Linecode=1P_UG_AL_1/0_Brenau_2

New Line.l(r:p13udm30760-p13ulv100783) Units=km Length=0.0254051 bus1=p13udm30760.1.2 bus2=p13ulv100783.1.2 switch=n enabled=y phases=2 Linecode=1P_UG_AL_1/0_Brenau_2

New Line.l(r:p13udm30760-p13udm30761) Units=km Length=0.0194903 bus1=p13udm30761.1.2 bus2=p13udm30760.1.2 switch=n enabled=y phases=2 Linecode=1P_UG_AL_1/0_Brenau_2

New Line.l(r:p13udm30754-p13udm30761) Units=km Length=0.0167698 bus1=p13udm30754.1.2 bus2=p13udm30761.1.2 switch=n enabled=y phases=2 Linecode=1P_UG_AL_1/0_Brenau_2

New Line.l(r:p13udm30753-p13udm30754) Units=km Length=0.007035480000000001 bus1=p13udm30753.1.2 bus2=p13udm30754.1.2 switch=n enabled=y phases=2 Linecode=1P_UG_AL_4/0_Sweetbriar_2

New Line.l(r:p13udm30753-p13udt7125lv) Units=km Length=0.00703938 bus1=p13udt7125lv.1.2 bus2=p13udm30753.1.2 switch=n enabled=y phases=2 Linecode=1P_UG_AL_4/0_Sweetbriar_2

New Line.l(r:p13udm30758-p13ulv98940) Units=km Length=0.0169138 bus1=p13udm30758.1.2 bus2=p13ulv98940.1.2 switch=n enabled=y phases=2 Linecode=1P_UG_AL_1/0_Brenau_2
