New Load.load_p13ulv10012_1 conn=wye bus1=p13ulv10012.1 kV=0.12 Vminpu=0.8 Vmaxpu=1.2 model=1 kW=4.727241800768059 kvar=0.9743826308151174 Phases=1 yearly=res_kw_4871_pu

New Load.load_p13ulv10012_2 conn=wye bus1=p13ulv10012.2 kV=0.12 Vminpu=0.8 Vmaxpu=1.2 model=1 kW=4.727241800768059 kvar=0.9743826308151174 Phases=1 yearly=res_kw_4871_pu

New Load.load_p13ulv10013_1 conn=wye bus1=p13ulv10013.1 kV=0.12 Vminpu=0.8 Vmaxpu=1.2 model=1 kW=4.649996289265807 kvar=0.5625044506543897 Phases=1 yearly=res_kw_411_pu

New Load.load_p13ulv10013_2 conn=wye bus1=p13ulv10013.2 kV=0.12 Vminpu=0.8 Vmaxpu=1.2 model=1 kW=4.649996289265807 kvar=0.5625044506543897 Phases=1 yearly=res_kw_411_pu

New Load.load_p13ulv10016_1 conn=wye bus1=p13ulv10016.1 kV=0.12 Vminpu=0.8 Vmaxpu=1.2 model=1 kW=3.530107013857577 kvar=0.7493399099576905 Phases=1 yearly=res_kw_6317_pu

New Load.load_p13ulv10016_2 conn=wye bus1=p13ulv10016.2 kV=0.12 Vminpu=0.8 Vmaxpu=1.2 model=1 kW=3.530107013857577 kvar=0.7493399099576905 Phases=1 yearly=res_kw_6317_pu

New Load.load_p13ulv10017_1 conn=wye bus1=p13ulv10017.1 kV=0.12 Vminpu=0.8 Vmaxpu=1.2 model=1 kW=2.7621916140377394 kvar=1.020997998526336 Phases=1 yearly=res_kw_10231_pu

New Load.load_p13ulv10017_2 conn=wye bus1=p13ulv10017.2 kV=0.12 Vminpu=0.8 Vmaxpu=1.2 model=1 kW=2.7621916140377394 kvar=1.020997998526336 Phases=1 yearly=res_kw_10231_pu

New Load.load_p13ulv10018_1 conn=wye bus1=p13ulv10018.1 kV=0.12 Vminpu=0.8 Vmaxpu=1.2 model=1 kW=4.013992703229786 kvar=0.0951464885764126 Phases=1 yearly=res_kw_6166_pu

New Load.load_p13ulv10018_2 conn=wye bus1=p13ulv10018.2 kV=0.12 Vminpu=0.8 Vmaxpu=1.2 model=1 kW=4.013992703229786 kvar=0.0951464885764126 Phases=1 yearly=res_kw_6166_pu

New Load.load_p13ulv10019_1 conn=wye bus1=p13ulv10019.1 kV=0.12 Vminpu=0.8 Vmaxpu=1.2 model=1 kW=8.445320136712393 kvar=1.7057595747683787 Phases=1 yearly=res_kw_11483_pu

New Load.load_p13ulv10019_2 conn=wye bus1=p13ulv10019.2 kV=0.12 Vminpu=0.8 Vmaxpu=1.2 model=1 kW=8.445320136712393 kvar=1.7057595747683787 Phases=1 yearly=res_kw_11483_pu

New Load.load_p13ulv10038_1 conn=wye bus1=p13ulv10038.1 kV=0.12 Vminpu=0.8 Vmaxpu=1.2 model=1 kW=3.5127978636027604 kvar=0.9794275484237299 Phases=1 yearly=res_kw_12216_pu

New Load.load_p13ulv10038_2 conn=wye bus1=p13ulv10038.2 kV=0.12 Vminpu=0.8 Vmaxpu=1.2 model=1 kW=3.5127978636027604 kvar=0.9794275484237299 Phases=1 yearly=res_kw_12216_pu

New Load.load_p13ulv10039_1 conn=wye bus1=p13ulv10039.1 kV=0.12 Vminpu=0.8 Vmaxpu=1.2 model=1 kW=2.14720038589496 kvar=0.8148360695243748 Phases=1 yearly=res_kw_13015_pu

New Load.load_p13ulv10039_2 conn=wye bus1=p13ulv10039.2 kV=0.12 Vminpu=0.8 Vmaxpu=1.2 model=1 kW=2.14720038589496 kvar=0.8148360695243748 Phases=1 yearly=res_kw_13015_pu

New Load.load_p13ulv10040_1 conn=wye bus1=p13ulv10040.1 kV=0.12 Vminpu=0.8 Vmaxpu=1.2 model=1 kW=7.3466842017892535 kvar=1.9354145219734802 Phases=1 yearly=res_kw_8333_pu

New Load.load_p13ulv10040_2 conn=wye bus1=p13ulv10040.2 kV=0.12 Vminpu=0.8 Vmaxpu=1.2 model=1 kW=7.3466842017892535 kvar=1.9354145219734802 Phases=1 yearly=res_kw_8333_pu

New Load.load_p13ulv10041_1 conn=wye bus1=p13ulv10041.1 kV=0.12 Vminpu=0.8 Vmaxpu=1.2 model=1 kW=3.477079137618401 kvar=0.2506950417219762 Phases=1 yearly=res_kw_14630_pu

New Load.load_p13ulv10041_2 conn=wye bus1=p13ulv10041.2 kV=0.12 Vminpu=0.8 Vmaxpu=1.2 model=1 kW=3.477079137618401 kvar=0.2506950417219762 Phases=1 yearly=res_kw_14630_pu

New Load.load_p13ulv10042_1 conn=wye bus1=p13ulv10042.1 kV=0.12 Vminpu=0.8 Vmaxpu=1.2 model=1 kW=5.563631884037898 kvar=0.8694361070293551 Phases=1 yearly=res_kw_7222_pu

New Load.load_p13ulv10042_2 conn=wye bus1=p13ulv10042.2 kV=0.12 Vminpu=0.8 Vmaxpu=1.2 model=1 kW=5.563631884037898 kvar=0.8694361070293551 Phases=1 yearly=res_kw_7222_pu

New Load.load_p13ulv10043_1 conn=wye bus1=p13ulv10043.1 kV=0.12 Vminpu=0.8 Vmaxpu=1.2 model=1 kW=3.5821374260926486 kvar=0.18032929921833907 Phases=1 yearly=res_kw_11950_pu

New Load.load_p13ulv10043_2 conn=wye bus1=p13ulv10043.2 kV=0.12 Vminpu=0.8 Vmaxpu=1.2 model=1 kW=3.5821374260926486 kvar=0.18032929921833907 Phases=1 yearly=res_kw_11950_pu

New Load.load_p13ulv10044_1 conn=wye bus1=p13ulv10044.1 kV=0.12 Vminpu=0.8 Vmaxpu=1.2 model=1 kW=2.7096273035432676 kvar=0.9427200469116054 Phases=1 yearly=res_kw_804_pu

New Load.load_p13ulv10044_2 conn=wye bus1=p13ulv10044.2 kV=0.12 Vminpu=0.8 Vmaxpu=1.2 model=1 kW=2.7096273035432676 kvar=0.9427200469116054 Phases=1 yearly=res_kw_804_pu

New Load.load_p13ulv10045_1 conn=wye bus1=p13ulv10045.1 kV=0.12 Vminpu=0.8 Vmaxpu=1.2 model=1 kW=6.317139451053329 kvar=1.0686077089069603 Phases=1 yearly=res_kw_2437_pu

New Load.load_p13ulv10045_2 conn=wye bus1=p13ulv10045.2 kV=0.12 Vminpu=0.8 Vmaxpu=1.2 model=1 kW=6.317139451053329 kvar=1.0686077089069603 Phases=1 yearly=res_kw_2437_pu

New Load.load_p13ulv10046_1 conn=wye bus1=p13ulv10046.1 kV=0.12 Vminpu=0.8 Vmaxpu=1.2 model=1 kW=6.538058989147882 kvar=2.726482209785312 Phases=1 yearly=res_kw_5797_pu

New Load.load_p13ulv10046_2 conn=wye bus1=p13ulv10046.2 kV=0.12 Vminpu=0.8 Vmaxpu=1.2 model=1 kW=6.538058989147882 kvar=2.726482209785312 Phases=1 yearly=res_kw_5797_pu

New Load.load_p13ulv10047_1 conn=wye bus1=p13ulv10047.1 kV=0.12 Vminpu=0.8 Vmaxpu=1.2 model=1 kW=9.578866457828433 kvar=0.5168325569261256 Phases=1 yearly=res_kw_2326_pu

New Load.load_p13ulv10047_2 conn=wye bus1=p13ulv10047.2 kV=0.12 Vminpu=0.8 Vmaxpu=1.2 model=1 kW=9.578866457828433 kvar=0.5168325569261256 Phases=1 yearly=res_kw_2326_pu

New Load.load_p13ulv10048_1 conn=wye bus1=p13ulv10048.1 kV=0.12 Vminpu=0.8 Vmaxpu=1.2 model=1 kW=3.2847737371461676 kvar=0.5402234962749611 Phases=1 yearly=res_kw_4545_pu

New Load.load_p13ulv10048_2 conn=wye bus1=p13ulv10048.2 kV=0.12 Vminpu=0.8 Vmaxpu=1.2 model=1 kW=3.2847737371461676 kvar=0.5402234962749611 Phases=1 yearly=res_kw_4545_pu

New Load.load_p13ulv10049_1 conn=wye bus1=p13ulv10049.1 kV=0.12 Vminpu=0.8 Vmaxpu=1.2 model=1 kW=12.564393901283234 kvar=2.3218300649713264 Phases=1 yearly=res_kw_3883_pu

New Load.load_p13ulv10049_2 conn=wye bus1=p13ulv10049.2 kV=0.12 Vminpu=0.8 Vmaxpu=1.2 model=1 kW=12.564393901283234 kvar=2.3218300649713264 Phases=1 yearly=res_kw_3883_pu

New Load.load_p13ulv10052_1 conn=wye bus1=p13ulv10052.1 kV=0.12 Vminpu=0.8 Vmaxpu=1.2 model=1 kW=2.7789063683313886 kvar=0.9327541895227238 Phases=1 yearly=res_kw_13651_pu

New Load.load_p13ulv10052_2 conn=wye bus1=p13ulv10052.2 kV=0.12 Vminpu=0.8 Vmaxpu=1.2 model=1 kW=2.7789063683313886 kvar=0.9327541895227238 Phases=1 yearly=res_kw_13651_pu

New Load.load_p13ulv10053_1 conn=wye bus1=p13ulv10053.1 kV=0.12 Vminpu=0.8 Vmaxpu=1.2 model=1 kW=3.530107013857577 kvar=0.7493399099576905 Phases=1 yearly=res_kw_6317_pu

New Load.load_p13ulv10053_2 conn=wye bus1=p13ulv10053.2 kV=0.12 Vminpu=0.8 Vmaxpu=1.2 model=1 kW=3.530107013857577 kvar=0.7493399099576905 Phases=1 yearly=res_kw_6317_pu

New Load.load_p13ulv10054_1 conn=wye bus1=p13ulv10054.1 kV=0.12 Vminpu=0.8 Vmaxpu=1.2 model=1 kW=12.005713581113644 kvar=1.394366702373135 Phases=1 yearly=res_kw_5197_pu

New Load.load_p13ulv10054_2 conn=wye bus1=p13ulv10054.2 kV=0.12 Vminpu=0.8 Vmaxpu=1.2 model=1 kW=12.005713581113644 kvar=1.394366702373135 Phases=1 yearly=res_kw_5197_pu

New Load.load_p13ulv10056_1 conn=wye bus1=p13ulv10056.1 kV=0.12 Vminpu=0.8 Vmaxpu=1.2 model=1 kW=4.525303114747101 kvar=0.4722687720205482 Phases=1 yearly=res_kw_1335_pu

New Load.load_p13ulv10056_2 conn=wye bus1=p13ulv10056.2 kV=0.12 Vminpu=0.8 Vmaxpu=1.2 model=1 kW=4.525303114747101 kvar=0.4722687720205482 Phases=1 yearly=res_kw_1335_pu

New Load.load_p13ulv10057_1 conn=wye bus1=p13ulv10057.1 kV=0.12 Vminpu=0.8 Vmaxpu=1.2 model=1 kW=5.517651012336844 kvar=1.6260949392149227 Phases=1 yearly=res_kw_11823_pu

New Load.load_p13ulv10057_2 conn=wye bus1=p13ulv10057.2 kV=0.12 Vminpu=0.8 Vmaxpu=1.2 model=1 kW=5.517651012336844 kvar=1.6260949392149227 Phases=1 yearly=res_kw_11823_pu

New Load.load_p13ulv10059_1 conn=wye bus1=p13ulv10059.1 kV=0.12 Vminpu=0.8 Vmaxpu=1.2 model=1 kW=2.8960916576388023 kvar=0.9964685634210223 Phases=1 yearly=res_kw_12807_pu

New Load.load_p13ulv10059_2 conn=wye bus1=p13ulv10059.2 kV=0.12 Vminpu=0.8 Vmaxpu=1.2 model=1 kW=2.8960916576388023 kvar=0.9964685634210223 Phases=1 yearly=res_kw_12807_pu

New Load.load_p13ulv10060_1 conn=wye bus1=p13ulv10060.1 kV=0.12 Vminpu=0.8 Vmaxpu=1.2 model=1 kW=11.91557519055491 kvar=1.8720293465317184 Phases=1 yearly=res_kw_10108_pu

New Load.load_p13ulv10060_2 conn=wye bus1=p13ulv10060.2 kV=0.12 Vminpu=0.8 Vmaxpu=1.2 model=1 kW=11.91557519055491 kvar=1.8720293465317184 Phases=1 yearly=res_kw_10108_pu

New Load.load_p13ulv10061_1 conn=wye bus1=p13ulv10061.1 kV=0.12 Vminpu=0.8 Vmaxpu=1.2 model=1 kW=2.389313960567773 kvar=1.1525758924371399 Phases=1 yearly=res_kw_4944_pu

New Load.load_p13ulv10061_2 conn=wye bus1=p13ulv10061.2 kV=0.12 Vminpu=0.8 Vmaxpu=1.2 model=1 kW=2.389313960567773 kvar=1.1525758924371399 Phases=1 yearly=res_kw_4944_pu

New Load.load_p13ulv10062_1 conn=wye bus1=p13ulv10062.1 kV=0.12 Vminpu=0.8 Vmaxpu=1.2 model=1 kW=6.8329220348316975 kvar=2.155447616972589 Phases=1 yearly=res_kw_2830_pu

New Load.load_p13ulv10062_2 conn=wye bus1=p13ulv10062.2 kV=0.12 Vminpu=0.8 Vmaxpu=1.2 model=1 kW=6.8329220348316975 kvar=2.155447616972589 Phases=1 yearly=res_kw_2830_pu

New Load.load_p13ulv10063_1 conn=wye bus1=p13ulv10063.1 kV=0.12 Vminpu=0.8 Vmaxpu=1.2 model=1 kW=1.6914947005599719 kvar=0.8203767296500374 Phases=1 yearly=res_kw_6690_pu

New Load.load_p13ulv10063_2 conn=wye bus1=p13ulv10063.2 kV=0.12 Vminpu=0.8 Vmaxpu=1.2 model=1 kW=1.6914947005599719 kvar=0.8203767296500374 Phases=1 yearly=res_kw_6690_pu

New Load.load_p13ulv10064_1 conn=wye bus1=p13ulv10064.1 kV=0.12 Vminpu=0.8 Vmaxpu=1.2 model=1 kW=2.9530424440975462 kvar=1.141899412394392 Phases=1 yearly=res_kw_7337_pu

New Load.load_p13ulv10064_2 conn=wye bus1=p13ulv10064.2 kV=0.12 Vminpu=0.8 Vmaxpu=1.2 model=1 kW=2.9530424440975462 kvar=1.141899412394392 Phases=1 yearly=res_kw_7337_pu

New Load.load_p13ulv10065_1 conn=wye bus1=p13ulv10065.1 kV=0.12 Vminpu=0.8 Vmaxpu=1.2 model=1 kW=2.1539059737470927 kvar=0.9171678263863311 Phases=1 yearly=res_kw_5872_pu

New Load.load_p13ulv10065_2 conn=wye bus1=p13ulv10065.2 kV=0.12 Vminpu=0.8 Vmaxpu=1.2 model=1 kW=2.1539059737470927 kvar=0.9171678263863311 Phases=1 yearly=res_kw_5872_pu

New Load.load_p13ulv10069_1 conn=wye bus1=p13ulv10069.1 kV=0.12 Vminpu=0.8 Vmaxpu=1.2 model=1 kW=17.191293521698707 kvar=3.2925490382907645 Phases=1 yearly=res_kw_10323_pu

New Load.load_p13ulv10069_2 conn=wye bus1=p13ulv10069.2 kV=0.12 Vminpu=0.8 Vmaxpu=1.2 model=1 kW=17.191293521698707 kvar=3.2925490382907645 Phases=1 yearly=res_kw_10323_pu

New Load.load_p13ulv10070_1 conn=wye bus1=p13ulv10070.1 kV=0.12 Vminpu=0.8 Vmaxpu=1.2 model=1 kW=2.227237347131017 kvar=0.19709879277580364 Phases=1 yearly=res_kw_13866_pu

New Load.load_p13ulv10070_2 conn=wye bus1=p13ulv10070.2 kV=0.12 Vminpu=0.8 Vmaxpu=1.2 model=1 kW=2.227237347131017 kvar=0.19709879277580364 Phases=1 yearly=res_kw_13866_pu

New Load.load_p13ulv10073_1 conn=wye bus1=p13ulv10073.1 kV=0.12 Vminpu=0.8 Vmaxpu=1.2 model=1 kW=6.213884755585777 kvar=1.1358813057151227 Phases=1 yearly=res_kw_9083_pu

New Load.load_p13ulv10073_2 conn=wye bus1=p13ulv10073.2 kV=0.12 Vminpu=0.8 Vmaxpu=1.2 model=1 kW=6.213884755585777 kvar=1.1358813057151227 Phases=1 yearly=res_kw_9083_pu

New Load.load_p13ulv10074_1 conn=wye bus1=p13ulv10074.1 kV=0.12 Vminpu=0.8 Vmaxpu=1.2 model=1 kW=3.5127978636027604 kvar=0.9794275484237299 Phases=1 yearly=res_kw_12216_pu

New Load.load_p13ulv10074_2 conn=wye bus1=p13ulv10074.2 kV=0.12 Vminpu=0.8 Vmaxpu=1.2 model=1 kW=3.5127978636027604 kvar=0.9794275484237299 Phases=1 yearly=res_kw_12216_pu

New Load.load_p13ulv10075 conn=wye bus1=p13ulv10075.1.2.3 kV=0.48 Vminpu=0.8 Vmaxpu=1.2 model=1 kW=32.111895746619595 kvar=7.367348368411129 Phases=3 yearly=com_kw_16848_pu

New Load.load_p13ulv10076_1 conn=wye bus1=p13ulv10076.1 kV=0.12 Vminpu=0.8 Vmaxpu=1.2 model=1 kW=3.8852189332903717 kvar=0.37938911661304714 Phases=1 yearly=com_kw_39836_pu

New Load.load_p13ulv10076_2 conn=wye bus1=p13ulv10076.2 kV=0.12 Vminpu=0.8 Vmaxpu=1.2 model=1 kW=3.8852189332903717 kvar=0.37938911661304714 Phases=1 yearly=com_kw_39836_pu

New Load.load_p13ulv10077_1 conn=wye bus1=p13ulv10077.1 kV=0.12 Vminpu=0.8 Vmaxpu=1.2 model=1 kW=5.883612677149364 kvar=1.2471816910894462 Phases=1 yearly=com_kw_31464_pu

New Load.load_p13ulv10077_2 conn=wye bus1=p13ulv10077.2 kV=0.12 Vminpu=0.8 Vmaxpu=1.2 model=1 kW=5.883612677149364 kvar=1.2471816910894462 Phases=1 yearly=com_kw_31464_pu

New Load.load_p13ulv10078_1 conn=wye bus1=p13ulv10078.1 kV=0.12 Vminpu=0.8 Vmaxpu=1.2 model=1 kW=2.3053857478313646 kvar=0.13774669750229476 Phases=1 yearly=res_kw_11842_pu

New Load.load_p13ulv10078_2 conn=wye bus1=p13ulv10078.2 kV=0.12 Vminpu=0.8 Vmaxpu=1.2 model=1 kW=2.3053857478313646 kvar=0.13774669750229476 Phases=1 yearly=res_kw_11842_pu

New Load.load_p13ulv10079_1 conn=wye bus1=p13ulv10079.1 kV=0.12 Vminpu=0.8 Vmaxpu=1.2 model=1 kW=1.5193943561622631 kvar=0.4953569107202652 Phases=1 yearly=res_kw_13607_pu

New Load.load_p13ulv10079_2 conn=wye bus1=p13ulv10079.2 kV=0.12 Vminpu=0.8 Vmaxpu=1.2 model=1 kW=1.5193943561622631 kvar=0.4953569107202652 Phases=1 yearly=res_kw_13607_pu

New Load.load_p13ulv10080_1 conn=wye bus1=p13ulv10080.1 kV=0.12 Vminpu=0.8 Vmaxpu=1.2 model=1 kW=2.4345519384807117 kvar=0.6629096983345695 Phases=1 yearly=res_kw_8140_pu

New Load.load_p13ulv10080_2 conn=wye bus1=p13ulv10080.2 kV=0.12 Vminpu=0.8 Vmaxpu=1.2 model=1 kW=2.4345519384807117 kvar=0.6629096983345695 Phases=1 yearly=res_kw_8140_pu

New Load.load_p13ulv10081_1 conn=wye bus1=p13ulv10081.1 kV=0.12 Vminpu=0.8 Vmaxpu=1.2 model=1 kW=4.525303114747101 kvar=0.4722687720205482 Phases=1 yearly=res_kw_1335_pu

New Load.load_p13ulv10081_2 conn=wye bus1=p13ulv10081.2 kV=0.12 Vminpu=0.8 Vmaxpu=1.2 model=1 kW=4.525303114747101 kvar=0.4722687720205482 Phases=1 yearly=res_kw_1335_pu

New Load.load_p13ulv10082_1 conn=wye bus1=p13ulv10082.1 kV=0.12 Vminpu=0.8 Vmaxpu=1.2 model=1 kW=1.9440119935697793 kvar=0.3573495716034417 Phases=1 yearly=res_kw_73_pu

New Load.load_p13ulv10082_2 conn=wye bus1=p13ulv10082.2 kV=0.12 Vminpu=0.8 Vmaxpu=1.2 model=1 kW=1.9440119935697793 kvar=0.3573495716034417 Phases=1 yearly=res_kw_73_pu

New Load.load_p13ulv10083_1 conn=wye bus1=p13ulv10083.1 kV=0.12 Vminpu=0.8 Vmaxpu=1.2 model=1 kW=1.1353262103086112 kvar=0.34331596398792597 Phases=1 yearly=res_kw_15106_pu

New Load.load_p13ulv10083_2 conn=wye bus1=p13ulv10083.2 kV=0.12 Vminpu=0.8 Vmaxpu=1.2 model=1 kW=1.1353262103086112 kvar=0.34331596398792597 Phases=1 yearly=res_kw_15106_pu

New Load.load_p13ulv10084_1 conn=wye bus1=p13ulv10084.1 kV=0.12 Vminpu=0.8 Vmaxpu=1.2 model=1 kW=3.783141054460893 kvar=1.012339098230179 Phases=1 yearly=res_kw_122_pu

New Load.load_p13ulv10084_2 conn=wye bus1=p13ulv10084.2 kV=0.12 Vminpu=0.8 Vmaxpu=1.2 model=1 kW=3.783141054460893 kvar=1.012339098230179 Phases=1 yearly=res_kw_122_pu

New Load.load_p13ulv10085_1 conn=wye bus1=p13ulv10085.1 kV=0.12 Vminpu=0.8 Vmaxpu=1.2 model=1 kW=2.9248113133092115 kvar=0.6033698329042984 Phases=1 yearly=res_kw_7148_pu

New Load.load_p13ulv10085_2 conn=wye bus1=p13ulv10085.2 kV=0.12 Vminpu=0.8 Vmaxpu=1.2 model=1 kW=2.9248113133092115 kvar=0.6033698329042984 Phases=1 yearly=res_kw_7148_pu

New Load.load_p13ulv10086_1 conn=wye bus1=p13ulv10086.1 kV=0.12 Vminpu=0.8 Vmaxpu=1.2 model=1 kW=5.250147943486637 kvar=1.9164358494546305 Phases=1 yearly=res_kw_6093_pu

New Load.load_p13ulv10086_2 conn=wye bus1=p13ulv10086.2 kV=0.12 Vminpu=0.8 Vmaxpu=1.2 model=1 kW=5.250147943486637 kvar=1.9164358494546305 Phases=1 yearly=res_kw_6093_pu

New Load.load_p13ulv10087_1 conn=wye bus1=p13ulv10087.1 kV=0.12 Vminpu=0.8 Vmaxpu=1.2 model=1 kW=9.627469225612568 kvar=0.49926921238807304 Phases=1 yearly=res_kw_2100_pu

New Load.load_p13ulv10087_2 conn=wye bus1=p13ulv10087.2 kV=0.12 Vminpu=0.8 Vmaxpu=1.2 model=1 kW=9.627469225612568 kvar=0.49926921238807304 Phases=1 yearly=res_kw_2100_pu

New Load.load_p13ulv10088_1 conn=wye bus1=p13ulv10088.1 kV=0.12 Vminpu=0.8 Vmaxpu=1.2 model=1 kW=4.506951586679659 kvar=1.0694073002604405 Phases=1 yearly=res_kw_10492_pu

New Load.load_p13ulv10088_2 conn=wye bus1=p13ulv10088.2 kV=0.12 Vminpu=0.8 Vmaxpu=1.2 model=1 kW=4.506951586679659 kvar=1.0694073002604405 Phases=1 yearly=res_kw_10492_pu

New Load.load_p13ulv10089_1 conn=wye bus1=p13ulv10089.1 kV=0.12 Vminpu=0.8 Vmaxpu=1.2 model=1 kW=2.5975572325002942 kvar=0.41729917554764967 Phases=1 yearly=res_kw_2553_pu

New Load.load_p13ulv10089_2 conn=wye bus1=p13ulv10089.2 kV=0.12 Vminpu=0.8 Vmaxpu=1.2 model=1 kW=2.5975572325002942 kvar=0.41729917554764967 Phases=1 yearly=res_kw_2553_pu

New Load.load_p13ulv10090_1 conn=wye bus1=p13ulv10089.1 kV=0.12 Vminpu=0.8 Vmaxpu=1.2 model=1 kW=2.4946353164133654 kvar=1.0943481521248741 Phases=1 yearly=res_kw_2736_pu

New Load.load_p13ulv10090_2 conn=wye bus1=p13ulv10089.2 kV=0.12 Vminpu=0.8 Vmaxpu=1.2 model=1 kW=2.4946353164133654 kvar=1.0943481521248741 Phases=1 yearly=res_kw_2736_pu

New Load.load_p13ulv10091_1 conn=wye bus1=p13ulv10091.1 kV=0.12 Vminpu=0.8 Vmaxpu=1.2 model=1 kW=4.254275566579572 kvar=0.3797810761751246 Phases=1 yearly=com_kw_39140_pu

New Load.load_p13ulv10091_2 conn=wye bus1=p13ulv10091.2 kV=0.12 Vminpu=0.8 Vmaxpu=1.2 model=1 kW=4.254275566579572 kvar=0.3797810761751246 Phases=1 yearly=com_kw_39140_pu

New Load.load_p13ulv10092_1 conn=wye bus1=p13ulv10092.1 kV=0.12 Vminpu=0.8 Vmaxpu=1.2 model=1 kW=8.487789356605123 kvar=1.6644890411465327 Phases=1 yearly=res_kw_12849_pu

New Load.load_p13ulv10092_2 conn=wye bus1=p13ulv10092.2 kV=0.12 Vminpu=0.8 Vmaxpu=1.2 model=1 kW=8.487789356605123 kvar=1.6644890411465327 Phases=1 yearly=res_kw_12849_pu

New Load.load_p13ulv10093_1 conn=wye bus1=p13ulv10093.1 kV=0.12 Vminpu=0.8 Vmaxpu=1.2 model=1 kW=0.17612179467146247 kvar=0.11765759770241532 Phases=1 yearly=res_kw_10248_pu

New Load.load_p13ulv10093_2 conn=wye bus1=p13ulv10093.2 kV=0.12 Vminpu=0.8 Vmaxpu=1.2 model=1 kW=0.17612179467146247 kvar=0.11765759770241532 Phases=1 yearly=res_kw_10248_pu

New Load.load_p13ulv10094_1 conn=wye bus1=p13ulv10094.1 kV=0.12 Vminpu=0.8 Vmaxpu=1.2 model=1 kW=4.302274753569353 kvar=1.02147407219746 Phases=1 yearly=res_kw_9488_pu

New Load.load_p13ulv10094_2 conn=wye bus1=p13ulv10094.2 kV=0.12 Vminpu=0.8 Vmaxpu=1.2 model=1 kW=4.302274753569353 kvar=1.02147407219746 Phases=1 yearly=res_kw_9488_pu

New Load.load_p13ulv10095_1 conn=wye bus1=p13ulv10095.1 kV=0.12 Vminpu=0.8 Vmaxpu=1.2 model=1 kW=4.827296820281592 kvar=1.022934018083245 Phases=1 yearly=res_kw_489_pu

New Load.load_p13ulv10095_2 conn=wye bus1=p13ulv10095.2 kV=0.12 Vminpu=0.8 Vmaxpu=1.2 model=1 kW=4.827296820281592 kvar=1.022934018083245 Phases=1 yearly=res_kw_489_pu

New Load.load_p13ulv10096_1 conn=wye bus1=p13ulv10096.1 kV=0.12 Vminpu=0.8 Vmaxpu=1.2 model=1 kW=2.45716749446947 kvar=0.6584611048368889 Phases=1 yearly=res_kw_11003_pu

New Load.load_p13ulv10096_2 conn=wye bus1=p13ulv10096.2 kV=0.12 Vminpu=0.8 Vmaxpu=1.2 model=1 kW=2.45716749446947 kvar=0.6584611048368889 Phases=1 yearly=res_kw_11003_pu

New Load.load_p13ulv10097_1 conn=wye bus1=p13ulv10097.1 kV=0.12 Vminpu=0.8 Vmaxpu=1.2 model=1 kW=2.671969806708772 kvar=1.3076248594650586 Phases=1 yearly=res_kw_14077_pu

New Load.load_p13ulv10097_2 conn=wye bus1=p13ulv10097.2 kV=0.12 Vminpu=0.8 Vmaxpu=1.2 model=1 kW=2.671969806708772 kvar=1.3076248594650586 Phases=1 yearly=res_kw_14077_pu

New Load.load_p13ulv10098_1 conn=wye bus1=p13ulv10098.1 kV=0.12 Vminpu=0.8 Vmaxpu=1.2 model=1 kW=3.8249517279712286 kvar=0.9876552030064008 Phases=1 yearly=res_kw_3019_pu

New Load.load_p13ulv10098_2 conn=wye bus1=p13ulv10098.2 kV=0.12 Vminpu=0.8 Vmaxpu=1.2 model=1 kW=3.8249517279712286 kvar=0.9876552030064008 Phases=1 yearly=res_kw_3019_pu

New Load.load_p13ulv10099_1 conn=wye bus1=p13ulv10098.1 kV=0.12 Vminpu=0.8 Vmaxpu=1.2 model=1 kW=2.66933020275041 kvar=0.7705928269131836 Phases=1 yearly=res_kw_1187_pu

New Load.load_p13ulv10099_2 conn=wye bus1=p13ulv10098.2 kV=0.12 Vminpu=0.8 Vmaxpu=1.2 model=1 kW=2.66933020275041 kvar=0.7705928269131836 Phases=1 yearly=res_kw_1187_pu

New Load.load_p13ulv10184_1 conn=wye bus1=p13ulv10184.1 kV=0.12 Vminpu=0.8 Vmaxpu=1.2 model=1 kW=4.437029459195736 kvar=1.0499678885984898 Phases=1 yearly=res_kw_12436_pu

New Load.load_p13ulv10184_2 conn=wye bus1=p13ulv10184.2 kV=0.12 Vminpu=0.8 Vmaxpu=1.2 model=1 kW=4.437029459195736 kvar=1.0499678885984898 Phases=1 yearly=res_kw_12436_pu

New Load.load_p13ulv10185_1 conn=wye bus1=p13ulv10185.1 kV=0.12 Vminpu=0.8 Vmaxpu=1.2 model=1 kW=6.443939551742727 kvar=1.9103797929484774 Phases=1 yearly=res_kw_4541_pu

New Load.load_p13ulv10185_2 conn=wye bus1=p13ulv10185.2 kV=0.12 Vminpu=0.8 Vmaxpu=1.2 model=1 kW=6.443939551742727 kvar=1.9103797929484774 Phases=1 yearly=res_kw_4541_pu

New Load.load_p13ulv10186_1 conn=wye bus1=p13ulv10186.1 kV=0.12 Vminpu=0.8 Vmaxpu=1.2 model=1 kW=1.8365108689290175 kvar=0.5284547221380054 Phases=1 yearly=res_kw_7659_pu

New Load.load_p13ulv10186_2 conn=wye bus1=p13ulv10186.2 kV=0.12 Vminpu=0.8 Vmaxpu=1.2 model=1 kW=1.8365108689290175 kvar=0.5284547221380054 Phases=1 yearly=res_kw_7659_pu

New Load.load_p13ulv10187_1 conn=wye bus1=p13ulv10187.1 kV=0.12 Vminpu=0.8 Vmaxpu=1.2 model=1 kW=2.66933020275041 kvar=0.7705928269131836 Phases=1 yearly=res_kw_1187_pu

New Load.load_p13ulv10187_2 conn=wye bus1=p13ulv10187.2 kV=0.12 Vminpu=0.8 Vmaxpu=1.2 model=1 kW=2.66933020275041 kvar=0.7705928269131836 Phases=1 yearly=res_kw_1187_pu

New Load.load_p13ulv10188_1 conn=wye bus1=p13ulv10188.1 kV=0.12 Vminpu=0.8 Vmaxpu=1.2 model=1 kW=3.530107013857577 kvar=0.7493399099576905 Phases=1 yearly=res_kw_6317_pu

New Load.load_p13ulv10188_2 conn=wye bus1=p13ulv10188.2 kV=0.12 Vminpu=0.8 Vmaxpu=1.2 model=1 kW=3.530107013857577 kvar=0.7493399099576905 Phases=1 yearly=res_kw_6317_pu

New Load.load_p13ulv10190_1 conn=wye bus1=p13ulv10190.1 kV=0.12 Vminpu=0.8 Vmaxpu=1.2 model=1 kW=12.915900497137587 kvar=2.232075564261423 Phases=1 yearly=res_kw_4774_pu

New Load.load_p13ulv10190_2 conn=wye bus1=p13ulv10190.2 kV=0.12 Vminpu=0.8 Vmaxpu=1.2 model=1 kW=12.915900497137587 kvar=2.232075564261423 Phases=1 yearly=res_kw_4774_pu

New Load.load_p13ulv10191 conn=wye bus1=p13ulv10191.1.2.3 kV=0.48 Vminpu=0.8 Vmaxpu=1.2 model=1 kW=57.1775304417832 kvar=15.685161314211218 Phases=3 yearly=res_kw_10440_pu

New Load.load_p13ulv10192_1 conn=wye bus1=p13ulv10192.1 kV=0.12 Vminpu=0.8 Vmaxpu=1.2 model=1 kW=7.24483221859947 kvar=1.9956577345103446 Phases=1 yearly=res_kw_6224_pu

New Load.load_p13ulv10192_2 conn=wye bus1=p13ulv10192.2 kV=0.12 Vminpu=0.8 Vmaxpu=1.2 model=1 kW=7.24483221859947 kvar=1.9956577345103446 Phases=1 yearly=res_kw_6224_pu

New Load.load_p13ulv10193_1 conn=wye bus1=p13ulv10193.1 kV=0.12 Vminpu=0.8 Vmaxpu=1.2 model=1 kW=11.202337154695709 kvar=2.8103481375968666 Phases=1 yearly=res_kw_8616_pu

New Load.load_p13ulv10193_2 conn=wye bus1=p13ulv10193.2 kV=0.12 Vminpu=0.8 Vmaxpu=1.2 model=1 kW=11.202337154695709 kvar=2.8103481375968666 Phases=1 yearly=res_kw_8616_pu

New Load.load_p13ulv10194_1 conn=wye bus1=p13ulv10194.1 kV=0.12 Vminpu=0.8 Vmaxpu=1.2 model=1 kW=4.59957743308055 kvar=0.20646649165522005 Phases=1 yearly=res_kw_7581_pu

New Load.load_p13ulv10194_2 conn=wye bus1=p13ulv10194.2 kV=0.12 Vminpu=0.8 Vmaxpu=1.2 model=1 kW=4.59957743308055 kvar=0.20646649165522005 Phases=1 yearly=res_kw_7581_pu

New Load.load_p13ulv10195_1 conn=wye bus1=p13ulv10195.1 kV=0.12 Vminpu=0.8 Vmaxpu=1.2 model=1 kW=2.7907121069256955 kvar=0.2461381131467959 Phases=1 yearly=com_kw_32021_pu

New Load.load_p13ulv10195_2 conn=wye bus1=p13ulv10195.2 kV=0.12 Vminpu=0.8 Vmaxpu=1.2 model=1 kW=2.7907121069256955 kvar=0.2461381131467959 Phases=1 yearly=com_kw_32021_pu

New Load.load_p13ulv10196 conn=wye bus1=p13ulv10196.1.2.3 kV=0.48 Vminpu=0.8 Vmaxpu=1.2 model=1 kW=33.95016357021168 kvar=9.725723439014168 Phases=3 yearly=com_kw_38975_pu

New Load.load_p13ulv10197_1 conn=wye bus1=p13ulv10197.1 kV=0.12 Vminpu=0.8 Vmaxpu=1.2 model=1 kW=10.497802930460315 kvar=0.9272424537312924 Phases=1 yearly=res_kw_623_pu

New Load.load_p13ulv10197_2 conn=wye bus1=p13ulv10197.2 kV=0.12 Vminpu=0.8 Vmaxpu=1.2 model=1 kW=10.497802930460315 kvar=0.9272424537312924 Phases=1 yearly=res_kw_623_pu

New Load.load_p13ulv10198_1 conn=wye bus1=p13ulv10198.1 kV=0.12 Vminpu=0.8 Vmaxpu=1.2 model=1 kW=4.434287553094306 kvar=1.107856296210735 Phases=1 yearly=com_kw_41373_pu

New Load.load_p13ulv10198_2 conn=wye bus1=p13ulv10198.2 kV=0.12 Vminpu=0.8 Vmaxpu=1.2 model=1 kW=4.434287553094306 kvar=1.107856296210735 Phases=1 yearly=com_kw_41373_pu

New Load.load_p13ulv10199_1 conn=wye bus1=p13ulv10199.1 kV=0.12 Vminpu=0.8 Vmaxpu=1.2 model=1 kW=2.985860771287539 kvar=0.8581405019567334 Phases=1 yearly=com_kw_16284_pu

New Load.load_p13ulv10199_2 conn=wye bus1=p13ulv10199.2 kV=0.12 Vminpu=0.8 Vmaxpu=1.2 model=1 kW=2.985860771287539 kvar=0.8581405019567334 Phases=1 yearly=com_kw_16284_pu

New Load.load_p13ulv10200_1 conn=wye bus1=p13ulv10199.1 kV=0.12 Vminpu=0.8 Vmaxpu=1.2 model=1 kW=15.784561136308364 kvar=2.330546559761436 Phases=1 yearly=res_kw_970_pu

New Load.load_p13ulv10200_2 conn=wye bus1=p13ulv10199.2 kV=0.12 Vminpu=0.8 Vmaxpu=1.2 model=1 kW=15.784561136308364 kvar=2.330546559761436 Phases=1 yearly=res_kw_970_pu

New Load.load_p13ulv10201_1 conn=wye bus1=p13ulv10201.1 kV=0.12 Vminpu=0.8 Vmaxpu=1.2 model=1 kW=6.554355985119902 kvar=1.621709549669686 Phases=1 yearly=res_kw_2695_pu

New Load.load_p13ulv10201_2 conn=wye bus1=p13ulv10201.2 kV=0.12 Vminpu=0.8 Vmaxpu=1.2 model=1 kW=6.554355985119902 kvar=1.621709549669686 Phases=1 yearly=res_kw_2695_pu

New Load.load_p13ulv10202_1 conn=wye bus1=p13ulv10202.1 kV=0.12 Vminpu=0.8 Vmaxpu=1.2 model=1 kW=4.013992703229786 kvar=0.0951464885764126 Phases=1 yearly=res_kw_6166_pu

New Load.load_p13ulv10202_2 conn=wye bus1=p13ulv10202.2 kV=0.12 Vminpu=0.8 Vmaxpu=1.2 model=1 kW=4.013992703229786 kvar=0.0951464885764126 Phases=1 yearly=res_kw_6166_pu

New Load.load_p13ulv10203_1 conn=wye bus1=p13ulv10203.1 kV=0.12 Vminpu=0.8 Vmaxpu=1.2 model=1 kW=11.586907037587332 kvar=1.9206571994210737 Phases=1 yearly=res_kw_4516_pu

New Load.load_p13ulv10203_2 conn=wye bus1=p13ulv10203.2 kV=0.12 Vminpu=0.8 Vmaxpu=1.2 model=1 kW=11.586907037587332 kvar=1.9206571994210737 Phases=1 yearly=res_kw_4516_pu

New Load.load_p13ulv10204_1 conn=wye bus1=p13ulv10204.1 kV=0.12 Vminpu=0.8 Vmaxpu=1.2 model=1 kW=3.2847737371461676 kvar=0.5402234962749611 Phases=1 yearly=res_kw_4545_pu

New Load.load_p13ulv10204_2 conn=wye bus1=p13ulv10204.2 kV=0.12 Vminpu=0.8 Vmaxpu=1.2 model=1 kW=3.2847737371461676 kvar=0.5402234962749611 Phases=1 yearly=res_kw_4545_pu

New Load.load_p13ulv10205_1 conn=wye bus1=p13ulv10205.1 kV=0.12 Vminpu=0.8 Vmaxpu=1.2 model=1 kW=3.9670567751310974 kvar=0.7313237870156125 Phases=1 yearly=res_kw_11993_pu

New Load.load_p13ulv10205_2 conn=wye bus1=p13ulv10205.2 kV=0.12 Vminpu=0.8 Vmaxpu=1.2 model=1 kW=3.9670567751310974 kvar=0.7313237870156125 Phases=1 yearly=res_kw_11993_pu

New Load.load_p13ulv10206_1 conn=wye bus1=p13ulv10206.1 kV=0.12 Vminpu=0.8 Vmaxpu=1.2 model=1 kW=1.6487523497220338 kvar=0.7724947172574583 Phases=1 yearly=res_kw_5424_pu

New Load.load_p13ulv10206_2 conn=wye bus1=p13ulv10206.2 kV=0.12 Vminpu=0.8 Vmaxpu=1.2 model=1 kW=1.6487523497220338 kvar=0.7724947172574583 Phases=1 yearly=res_kw_5424_pu

New Load.load_p13ulv10207_1 conn=wye bus1=p13ulv10207.1 kV=0.12 Vminpu=0.8 Vmaxpu=1.2 model=1 kW=6.474807553580553 kvar=0.11992182464309435 Phases=1 yearly=res_kw_7346_pu

New Load.load_p13ulv10207_2 conn=wye bus1=p13ulv10207.2 kV=0.12 Vminpu=0.8 Vmaxpu=1.2 model=1 kW=6.474807553580553 kvar=0.11992182464309435 Phases=1 yearly=res_kw_7346_pu

New Load.load_p13ulv10208_1 conn=wye bus1=p13ulv10208.1 kV=0.12 Vminpu=0.8 Vmaxpu=1.2 model=1 kW=1.2969318034316557 kvar=0.5031615725024134 Phases=1 yearly=res_kw_2935_pu

New Load.load_p13ulv10208_2 conn=wye bus1=p13ulv10208.2 kV=0.12 Vminpu=0.8 Vmaxpu=1.2 model=1 kW=1.2969318034316557 kvar=0.5031615725024134 Phases=1 yearly=res_kw_2935_pu

New Load.load_p13ulv10209_1 conn=wye bus1=p13ulv10209.1 kV=0.12 Vminpu=0.8 Vmaxpu=1.2 model=1 kW=2.0010778415191557 kvar=0.1851858368488383 Phases=1 yearly=res_kw_451_pu

New Load.load_p13ulv10209_2 conn=wye bus1=p13ulv10209.2 kV=0.12 Vminpu=0.8 Vmaxpu=1.2 model=1 kW=2.0010778415191557 kvar=0.1851858368488383 Phases=1 yearly=res_kw_451_pu

New Load.load_p13ulv10210_1 conn=wye bus1=p13ulv10210.1 kV=0.12 Vminpu=0.8 Vmaxpu=1.2 model=1 kW=15.784561136308364 kvar=2.330546559761436 Phases=1 yearly=res_kw_970_pu

New Load.load_p13ulv10210_2 conn=wye bus1=p13ulv10210.2 kV=0.12 Vminpu=0.8 Vmaxpu=1.2 model=1 kW=15.784561136308364 kvar=2.330546559761436 Phases=1 yearly=res_kw_970_pu

New Load.load_p13ulv10211_1 conn=wye bus1=p13ulv10211.1 kV=0.12 Vminpu=0.8 Vmaxpu=1.2 model=1 kW=2.7096273035432676 kvar=0.9427200469116054 Phases=1 yearly=res_kw_804_pu

New Load.load_p13ulv10211_2 conn=wye bus1=p13ulv10211.2 kV=0.12 Vminpu=0.8 Vmaxpu=1.2 model=1 kW=2.7096273035432676 kvar=0.9427200469116054 Phases=1 yearly=res_kw_804_pu

New Load.load_p13ulv10212_1 conn=wye bus1=p13ulv10212.1 kV=0.12 Vminpu=0.8 Vmaxpu=1.2 model=1 kW=6.016101116752196 kvar=0.4002351854880724 Phases=1 yearly=res_kw_9190_pu

New Load.load_p13ulv10212_2 conn=wye bus1=p13ulv10212.2 kV=0.12 Vminpu=0.8 Vmaxpu=1.2 model=1 kW=6.016101116752196 kvar=0.4002351854880724 Phases=1 yearly=res_kw_9190_pu

New Load.load_p13ulv10213_1 conn=wye bus1=p13ulv10213.1 kV=0.12 Vminpu=0.8 Vmaxpu=1.2 model=1 kW=1.299066487979639 kvar=0.47816789772900914 Phases=1 yearly=res_kw_6106_pu

New Load.load_p13ulv10213_2 conn=wye bus1=p13ulv10213.2 kV=0.12 Vminpu=0.8 Vmaxpu=1.2 model=1 kW=1.299066487979639 kvar=0.47816789772900914 Phases=1 yearly=res_kw_6106_pu

New Load.load_p13ulv10214_1 conn=wye bus1=p13ulv10214.1 kV=0.12 Vminpu=0.8 Vmaxpu=1.2 model=1 kW=3.4950577425910927 kvar=0.9344550284674865 Phases=1 yearly=res_kw_9664_pu
