New Load.load_p13ulv10490_1 conn=wye bus1=p13ulv10490.1 kV=0.12 Vminpu=0.8 Vmaxpu=1.2 model=1 kW=4.237064396976419 kvar=0.25029256707639685 Phases=1 yearly=com_kw_1949_pu

New Load.load_p13ulv10490_2 conn=wye bus1=p13ulv10490.2 kV=0.12 Vminpu=0.8 Vmaxpu=1.2 model=1 kW=4.237064396976419 kvar=0.25029256707639685 Phases=1 yearly=com_kw_1949_pu

New Load.load_p13ulv10491_1 conn=wye bus1=p13ulv10491.1 kV=0.12 Vminpu=0.8 Vmaxpu=1.2 model=1 kW=4.237064396976419 kvar=0.25029256707639685 Phases=1 yearly=com_kw_1949_pu

New Load.load_p13ulv10491_2 conn=wye bus1=p13ulv10491.2 kV=0.12 Vminpu=0.8 Vmaxpu=1.2 model=1 kW=4.237064396976419 kvar=0.25029256707639685 Phases=1 yearly=com_kw_1949_pu

New Load.load_p13ulv10492 conn=wye bus1=p13ulv10492.1.2.3 kV=0.48 Vminpu=0.8 Vmaxpu=1.2 model=1 kW=42.15804967437674 kvar=10.252789913315052 Phases=3 yearly=com_kw_19561_pu

New Load.load_p13ulv10493_1 conn=wye bus1=p13ulv10493.1 kV=0.12 Vminpu=0.8 Vmaxpu=1.2 model=1 kW=2.6177176722165996 kvar=0.35262955135220253 Phases=1 yearly=com_kw_2476_pu

New Load.load_p13ulv10493_2 conn=wye bus1=p13ulv10493.2 kV=0.12 Vminpu=0.8 Vmaxpu=1.2 model=1 kW=2.6177176722165996 kvar=0.35262955135220253 Phases=1 yearly=com_kw_2476_pu

New Load.load_p13ulv10494_1 conn=wye bus1=p13ulv10494.1 kV=0.12 Vminpu=0.8 Vmaxpu=1.2 model=1 kW=2.802717379105421 kvar=0.026623133233749544 Phases=1 yearly=com_kw_16677_pu

New Load.load_p13ulv10494_2 conn=wye bus1=p13ulv10494.2 kV=0.12 Vminpu=0.8 Vmaxpu=1.2 model=1 kW=2.802717379105421 kvar=0.026623133233749544 Phases=1 yearly=com_kw_16677_pu

New Load.load_p13ulv10495_1 conn=wye bus1=p13ulv10495.1 kV=0.12 Vminpu=0.8 Vmaxpu=1.2 model=1 kW=3.38660257899561 kvar=0.2555214623459447 Phases=1 yearly=com_kw_41556_pu

New Load.load_p13ulv10495_2 conn=wye bus1=p13ulv10495.2 kV=0.12 Vminpu=0.8 Vmaxpu=1.2 model=1 kW=3.38660257899561 kvar=0.2555214623459447 Phases=1 yearly=com_kw_41556_pu

New Load.load_p13ulv10496_1 conn=wye bus1=p13ulv10496.1 kV=0.12 Vminpu=0.8 Vmaxpu=1.2 model=1 kW=2.3528174048424977 kvar=0.6585735133710123 Phases=1 yearly=com_kw_29330_pu

New Load.load_p13ulv10496_2 conn=wye bus1=p13ulv10496.2 kV=0.12 Vminpu=0.8 Vmaxpu=1.2 model=1 kW=2.3528174048424977 kvar=0.6585735133710123 Phases=1 yearly=com_kw_29330_pu

New Load.load_p13ulv10497_1 conn=wye bus1=p13ulv10497.1 kV=0.12 Vminpu=0.8 Vmaxpu=1.2 model=1 kW=2.7201275879140105 kvar=0.5090883231833542 Phases=1 yearly=com_kw_1102_pu

New Load.load_p13ulv10497_2 conn=wye bus1=p13ulv10497.2 kV=0.12 Vminpu=0.8 Vmaxpu=1.2 model=1 kW=2.7201275879140105 kvar=0.5090883231833542 Phases=1 yearly=com_kw_1102_pu

New Load.load_p13ulv10498 conn=wye bus1=p13ulv10498.1.2.3 kV=0.48 Vminpu=0.8 Vmaxpu=1.2 model=1 kW=52.96638302857625 kvar=3.629416400540614 Phases=3 yearly=com_kw_28942_pu

New Load.load_p13ulv10511_1 conn=wye bus1=p13ulv10511.1 kV=0.12 Vminpu=0.8 Vmaxpu=1.2 model=1 kW=3.8192821785922395 kvar=0.3725137998116923 Phases=1 yearly=com_kw_2479_pu

New Load.load_p13ulv10511_2 conn=wye bus1=p13ulv10511.2 kV=0.12 Vminpu=0.8 Vmaxpu=1.2 model=1 kW=3.8192821785922395 kvar=0.3725137998116923 Phases=1 yearly=com_kw_2479_pu

New Load.load_p13ulv10512 conn=wye bus1=p13ulv10512.1.2.3 kV=0.48 Vminpu=0.8 Vmaxpu=1.2 model=1 kW=64.15462238035809 kvar=14.197783394948841 Phases=3 yearly=com_kw_17400_pu

New Load.load_p13umv9 conn=wye bus1=p13umv9.1.2.3 kV=12.47 Vminpu=0.8 Vmaxpu=1.2 model=1 kW=1181.102764160133 kvar=330.08790459651357 Phases=3 yearly=com_kw_34411_pu

New Load.load_p13ulv10513 conn=wye bus1=p13ulv10513.1.2.3 kV=0.48 Vminpu=0.8 Vmaxpu=1.2 model=1 kW=82.55808759056055 kvar=27.50240185064225 Phases=3 yearly=res_kw_11768_pu

New Load.load_p13ulv10514_1 conn=wye bus1=p13ulv10514.1 kV=0.12 Vminpu=0.8 Vmaxpu=1.2 model=1 kW=1.8820846585791586 kvar=0.45351547839580986 Phases=1 yearly=com_kw_29637_pu

New Load.load_p13ulv10514_2 conn=wye bus1=p13ulv10514.2 kV=0.12 Vminpu=0.8 Vmaxpu=1.2 model=1 kW=1.8820846585791586 kvar=0.45351547839580986 Phases=1 yearly=com_kw_29637_pu

New Load.load_p13ulv10521 conn=wye bus1=p13ulv10521.1.2.3 kV=0.48 Vminpu=0.8 Vmaxpu=1.2 model=1 kW=24.098624017552726 kvar=1.8682204855254974 Phases=3 yearly=com_kw_22628_pu

New Load.load_p13ulv10522_1 conn=wye bus1=p13ulv10522.1 kV=0.12 Vminpu=0.8 Vmaxpu=1.2 model=1 kW=2.3117163963970264 kvar=0.6176806394424428 Phases=1 yearly=com_kw_39952_pu

New Load.load_p13ulv10522_2 conn=wye bus1=p13ulv10522.2 kV=0.12 Vminpu=0.8 Vmaxpu=1.2 model=1 kW=2.3117163963970264 kvar=0.6176806394424428 Phases=1 yearly=com_kw_39952_pu

New Load.load_p13ulv10523 conn=wye bus1=p13ulv10523.1.2.3 kV=0.48 Vminpu=0.8 Vmaxpu=1.2 model=1 kW=41.420581613520916 kvar=9.285289107399604 Phases=3 yearly=com_kw_19592_pu

New Load.load_p13ulv10524_1 conn=wye bus1=p13ulv10524.1 kV=0.12 Vminpu=0.8 Vmaxpu=1.2 model=1 kW=3.6719505805085033 kvar=0.1383100493666806 Phases=1 yearly=com_kw_2007_pu

New Load.load_p13ulv10524_2 conn=wye bus1=p13ulv10524.2 kV=0.12 Vminpu=0.8 Vmaxpu=1.2 model=1 kW=3.6719505805085033 kvar=0.1383100493666806 Phases=1 yearly=com_kw_2007_pu

New Load.load_p13ulv10525_1 conn=wye bus1=p13ulv10524.1 kV=0.12 Vminpu=0.8 Vmaxpu=1.2 model=1 kW=2.1777746588625924 kvar=0.4492029728931756 Phases=1 yearly=com_kw_17204_pu

New Load.load_p13ulv10525_2 conn=wye bus1=p13ulv10524.2 kV=0.12 Vminpu=0.8 Vmaxpu=1.2 model=1 kW=2.1777746588625924 kvar=0.4492029728931756 Phases=1 yearly=com_kw_17204_pu

New Load.load_p13ulv10526_1 conn=wye bus1=p13ulv10526.1 kV=0.12 Vminpu=0.8 Vmaxpu=1.2 model=1 kW=6.09660653743229 kvar=0.2844529337805621 Phases=1 yearly=res_kw_2643_pu

New Load.load_p13ulv10526_2 conn=wye bus1=p13ulv10526.2 kV=0.12 Vminpu=0.8 Vmaxpu=1.2 model=1 kW=6.09660653743229 kvar=0.2844529337805621 Phases=1 yearly=res_kw_2643_pu

New Load.load_p13ulv10527_1 conn=wye bus1=p13ulv10527.1 kV=0.12 Vminpu=0.8 Vmaxpu=1.2 model=1 kW=6.09660653743229 kvar=0.2844529337805621 Phases=1 yearly=res_kw_2643_pu

New Load.load_p13ulv10527_2 conn=wye bus1=p13ulv10527.2 kV=0.12 Vminpu=0.8 Vmaxpu=1.2 model=1 kW=6.09660653743229 kvar=0.2844529337805621 Phases=1 yearly=res_kw_2643_pu

New Load.load_p13ulv10528_1 conn=wye bus1=p13ulv10526.1 kV=0.12 Vminpu=0.8 Vmaxpu=1.2 model=1 kW=9.302339808777472 kvar=0.5878794600214978 Phases=1 yearly=com_kw_19874_pu

New Load.load_p13ulv10528_2 conn=wye bus1=p13ulv10526.2 kV=0.12 Vminpu=0.8 Vmaxpu=1.2 model=1 kW=9.302339808777472 kvar=0.5878794600214978 Phases=1 yearly=com_kw_19874_pu

New Load.load_p13ulv10529_1 conn=wye bus1=p13ulv10529.1 kV=0.12 Vminpu=0.8 Vmaxpu=1.2 model=1 kW=2.851482216254808 kvar=0.7229410916592055 Phases=1 yearly=com_kw_16213_pu

New Load.load_p13ulv10529_2 conn=wye bus1=p13ulv10529.2 kV=0.12 Vminpu=0.8 Vmaxpu=1.2 model=1 kW=2.851482216254808 kvar=0.7229410916592055 Phases=1 yearly=com_kw_16213_pu

New Load.load_p13ulv10530_1 conn=wye bus1=p13ulv10530.1 kV=0.12 Vminpu=0.8 Vmaxpu=1.2 model=1 kW=1.448164901541984 kvar=0.3235156591238907 Phases=1 yearly=com_kw_2456_pu

New Load.load_p13ulv10530_2 conn=wye bus1=p13ulv10530.2 kV=0.12 Vminpu=0.8 Vmaxpu=1.2 model=1 kW=1.448164901541984 kvar=0.3235156591238907 Phases=1 yearly=com_kw_2456_pu

New Load.load_p13ulv10531_1 conn=wye bus1=p13ulv10531.1 kV=0.12 Vminpu=0.8 Vmaxpu=1.2 model=1 kW=4.550072022942251 kvar=1.13977112874647 Phases=1 yearly=com_kw_2449_pu

New Load.load_p13ulv10531_2 conn=wye bus1=p13ulv10531.2 kV=0.12 Vminpu=0.8 Vmaxpu=1.2 model=1 kW=4.550072022942251 kvar=1.13977112874647 Phases=1 yearly=com_kw_2449_pu

New Load.load_p13ulv10535_1 conn=wye bus1=p13ulv10535.1 kV=0.12 Vminpu=0.8 Vmaxpu=1.2 model=1 kW=5.656286519604784 kvar=0.5858380244880839 Phases=1 yearly=com_kw_31708_pu

New Load.load_p13ulv10535_2 conn=wye bus1=p13ulv10535.2 kV=0.12 Vminpu=0.8 Vmaxpu=1.2 model=1 kW=5.656286519604784 kvar=0.5858380244880839 Phases=1 yearly=com_kw_31708_pu

New Load.load_p13ulv10536_1 conn=wye bus1=p13ulv10536.1 kV=0.12 Vminpu=0.8 Vmaxpu=1.2 model=1 kW=3.6257830668128244 kvar=0.6379591618091651 Phases=1 yearly=com_kw_17466_pu

New Load.load_p13ulv10536_2 conn=wye bus1=p13ulv10536.2 kV=0.12 Vminpu=0.8 Vmaxpu=1.2 model=1 kW=3.6257830668128244 kvar=0.6379591618091651 Phases=1 yearly=com_kw_17466_pu

New Load.load_p13ulv10537_1 conn=wye bus1=p13ulv10537.1 kV=0.12 Vminpu=0.8 Vmaxpu=1.2 model=1 kW=4.7076276637974575 kvar=1.4384167252185296 Phases=1 yearly=com_kw_2109_pu

New Load.load_p13ulv10537_2 conn=wye bus1=p13ulv10537.2 kV=0.12 Vminpu=0.8 Vmaxpu=1.2 model=1 kW=4.7076276637974575 kvar=1.4384167252185296 Phases=1 yearly=com_kw_2109_pu

New Load.load_p13ulv10538_1 conn=wye bus1=p13ulv10536.1 kV=0.12 Vminpu=0.8 Vmaxpu=1.2 model=1 kW=6.070353833461112 kvar=0.3744615524186922 Phases=1 yearly=com_kw_2626_pu

New Load.load_p13ulv10538_2 conn=wye bus1=p13ulv10536.2 kV=0.12 Vminpu=0.8 Vmaxpu=1.2 model=1 kW=6.070353833461112 kvar=0.3744615524186922 Phases=1 yearly=com_kw_2626_pu

New Load.load_p13ulv10653 conn=wye bus1=p13ulv10653.1.2.3 kV=0.48 Vminpu=0.8 Vmaxpu=1.2 model=1 kW=20.806421019960418 kvar=5.5719274679884405 Phases=3 yearly=com_kw_1795_pu

New Load.load_p13ulv11115 conn=wye bus1=p13ulv11115.1.2.3 kV=0.48 Vminpu=0.8 Vmaxpu=1.2 model=1 kW=24.4784640841746 kvar=2.0589437853065498 Phases=3 yearly=com_kw_41335_pu

New Load.load_p13ulv11117 conn=wye bus1=p13ulv11117.1.2.3 kV=0.48 Vminpu=0.8 Vmaxpu=1.2 model=1 kW=45.05003486216184 kvar=2.6017036872744126 Phases=3 yearly=com_kw_22464_pu

New Load.load_p13ulv11118_1 conn=wye bus1=p13ulv11118.1 kV=0.12 Vminpu=0.8 Vmaxpu=1.2 model=1 kW=13.602908458869965 kvar=1.1400043531218254 Phases=1 yearly=com_kw_22646_pu

New Load.load_p13ulv11118_2 conn=wye bus1=p13ulv11118.2 kV=0.12 Vminpu=0.8 Vmaxpu=1.2 model=1 kW=13.602908458869965 kvar=1.1400043531218254 Phases=1 yearly=com_kw_22646_pu

New Load.load_p13ulv11119 conn=wye bus1=p13ulv11119.1.2.3 kV=0.48 Vminpu=0.8 Vmaxpu=1.2 model=1 kW=125.0340054572988 kvar=21.484163743108212 Phases=3 yearly=com_kw_19560_pu

New Load.load_p13ulv11120 conn=wye bus1=p13ulv11120.1.2.3 kV=0.48 Vminpu=0.8 Vmaxpu=1.2 model=1 kW=59.19861672492561 kvar=11.585613825351517 Phases=3 yearly=com_kw_32129_pu

New Load.load_p13ulv11121 conn=wye bus1=p13ulv11121.1.2.3 kV=0.48 Vminpu=0.8 Vmaxpu=1.2 model=1 kW=29.156322795779516 kvar=6.246674143277045 Phases=3 yearly=com_kw_31393_pu

New Load.load_p13ulv11122 conn=wye bus1=p13ulv11122.1.2.3 kV=0.48 Vminpu=0.8 Vmaxpu=1.2 model=1 kW=33.22340063381306 kvar=6.89731522012186 Phases=3 yearly=com_kw_8424_pu

New Load.load_p13ulv11123 conn=wye bus1=p13ulv11123.1.2.3 kV=0.48 Vminpu=0.8 Vmaxpu=1.2 model=1 kW=73.88411437467983 kvar=3.8283071512030284 Phases=3 yearly=com_kw_1225_pu

New Load.load_p13ulv11124_1 conn=wye bus1=p13ulv11124.1 kV=0.12 Vminpu=0.8 Vmaxpu=1.2 model=1 kW=2.1338967811510607 kvar=0.10405415899292773 Phases=1 yearly=com_kw_1789_pu

New Load.load_p13ulv11124_2 conn=wye bus1=p13ulv11124.2 kV=0.12 Vminpu=0.8 Vmaxpu=1.2 model=1 kW=2.1338967811510607 kvar=0.10405415899292773 Phases=1 yearly=com_kw_1789_pu

New Load.load_p13ulv11127_1 conn=wye bus1=p13ulv11127.1 kV=0.12 Vminpu=0.8 Vmaxpu=1.2 model=1 kW=9.356899840419338 kvar=0.5196510994877434 Phases=1 yearly=com_kw_34338_pu

New Load.load_p13ulv11127_2 conn=wye bus1=p13ulv11127.2 kV=0.12 Vminpu=0.8 Vmaxpu=1.2 model=1 kW=9.356899840419338 kvar=0.5196510994877434 Phases=1 yearly=com_kw_34338_pu

New Load.load_p13ulv11128_1 conn=wye bus1=p13ulv11128.1 kV=0.12 Vminpu=0.8 Vmaxpu=1.2 model=1 kW=6.344409091226518 kvar=1.1963936772437092 Phases=1 yearly=com_kw_41550_pu

New Load.load_p13ulv11128_2 conn=wye bus1=p13ulv11128.2 kV=0.12 Vminpu=0.8 Vmaxpu=1.2 model=1 kW=6.344409091226518 kvar=1.1963936772437092 Phases=1 yearly=com_kw_41550_pu

New Load.load_p13ulv11129 conn=wye bus1=p13ulv11129.1.2.3 kV=0.48 Vminpu=0.8 Vmaxpu=1.2 model=1 kW=32.08898903719451 kvar=6.596034517140479 Phases=3 yearly=com_kw_19798_pu

New Load.load_p13ulv11130_1 conn=wye bus1=p13ulv11130.1 kV=0.12 Vminpu=0.8 Vmaxpu=1.2 model=1 kW=7.187120617893428 kvar=1.3674667850996691 Phases=1 yearly=com_kw_1658_pu

New Load.load_p13ulv11130_2 conn=wye bus1=p13ulv11130.2 kV=0.12 Vminpu=0.8 Vmaxpu=1.2 model=1 kW=7.187120617893428 kvar=1.3674667850996691 Phases=1 yearly=com_kw_1658_pu

New Load.load_p13ulv11131_1 conn=wye bus1=p13ulv11131.1 kV=0.12 Vminpu=0.8 Vmaxpu=1.2 model=1 kW=4.237064396976419 kvar=0.25029256707639685 Phases=1 yearly=com_kw_1949_pu

New Load.load_p13ulv11131_2 conn=wye bus1=p13ulv11131.2 kV=0.12 Vminpu=0.8 Vmaxpu=1.2 model=1 kW=4.237064396976419 kvar=0.25029256707639685 Phases=1 yearly=com_kw_1949_pu

New Load.load_p13ulv14190_1 conn=wye bus1=p13ulv14190.1 kV=0.12 Vminpu=0.8 Vmaxpu=1.2 model=1 kW=4.452260307167006 kvar=0.9228554706975283 Phases=1 yearly=res_kw_10024_pu

New Load.load_p13ulv14190_2 conn=wye bus1=p13ulv14190.2 kV=0.12 Vminpu=0.8 Vmaxpu=1.2 model=1 kW=4.452260307167006 kvar=0.9228554706975283 Phases=1 yearly=res_kw_10024_pu

New Load.load_p13ulv14191_1 conn=wye bus1=p13ulv14191.1 kV=0.12 Vminpu=0.8 Vmaxpu=1.2 model=1 kW=6.554355985119902 kvar=1.621709549669686 Phases=1 yearly=res_kw_2695_pu

New Load.load_p13ulv14191_2 conn=wye bus1=p13ulv14191.2 kV=0.12 Vminpu=0.8 Vmaxpu=1.2 model=1 kW=6.554355985119902 kvar=1.621709549669686 Phases=1 yearly=res_kw_2695_pu

New Load.load_p13ulv14192_1 conn=wye bus1=p13ulv14192.1 kV=0.12 Vminpu=0.8 Vmaxpu=1.2 model=1 kW=1.7498105647989284 kvar=0.6854218574450461 Phases=1 yearly=res_kw_8580_pu

New Load.load_p13ulv14192_2 conn=wye bus1=p13ulv14192.2 kV=0.12 Vminpu=0.8 Vmaxpu=1.2 model=1 kW=1.7498105647989284 kvar=0.6854218574450461 Phases=1 yearly=res_kw_8580_pu

New Load.load_p13ulv14193_1 conn=wye bus1=p13ulv14193.1 kV=0.12 Vminpu=0.8 Vmaxpu=1.2 model=1 kW=3.5127978636027604 kvar=0.9794275484237299 Phases=1 yearly=res_kw_12216_pu

New Load.load_p13ulv14193_2 conn=wye bus1=p13ulv14193.2 kV=0.12 Vminpu=0.8 Vmaxpu=1.2 model=1 kW=3.5127978636027604 kvar=0.9794275484237299 Phases=1 yearly=res_kw_12216_pu

New Load.load_p13ulv14194_1 conn=wye bus1=p13ulv14194.1 kV=0.12 Vminpu=0.8 Vmaxpu=1.2 model=1 kW=2.7096273035432676 kvar=0.9427200469116054 Phases=1 yearly=res_kw_804_pu

New Load.load_p13ulv14194_2 conn=wye bus1=p13ulv14194.2 kV=0.12 Vminpu=0.8 Vmaxpu=1.2 model=1 kW=2.7096273035432676 kvar=0.9427200469116054 Phases=1 yearly=res_kw_804_pu

New Load.load_p13ulv14195_1 conn=wye bus1=p13ulv14195.1 kV=0.12 Vminpu=0.8 Vmaxpu=1.2 model=1 kW=1.811785045781775 kvar=0.8857425190479955 Phases=1 yearly=res_kw_409_pu

New Load.load_p13ulv14195_2 conn=wye bus1=p13ulv14195.2 kV=0.12 Vminpu=0.8 Vmaxpu=1.2 model=1 kW=1.811785045781775 kvar=0.8857425190479955 Phases=1 yearly=res_kw_409_pu

New Load.load_p13ulv14196_1 conn=wye bus1=p13ulv14196.1 kV=0.12 Vminpu=0.8 Vmaxpu=1.2 model=1 kW=8.487789356605123 kvar=1.6644890411465327 Phases=1 yearly=res_kw_12849_pu

New Load.load_p13ulv14196_2 conn=wye bus1=p13ulv14196.2 kV=0.12 Vminpu=0.8 Vmaxpu=1.2 model=1 kW=8.487789356605123 kvar=1.6644890411465327 Phases=1 yearly=res_kw_12849_pu

New Load.load_p13ulv14197_1 conn=wye bus1=p13ulv14197.1 kV=0.12 Vminpu=0.8 Vmaxpu=1.2 model=1 kW=3.6929402642720457 kvar=0.18567820146012812 Phases=1 yearly=res_kw_9376_pu

New Load.load_p13ulv14197_2 conn=wye bus1=p13ulv14197.2 kV=0.12 Vminpu=0.8 Vmaxpu=1.2 model=1 kW=3.6929402642720457 kvar=0.18567820146012812 Phases=1 yearly=res_kw_9376_pu

New Load.load_p13ulv14198_1 conn=wye bus1=p13ulv14198.1 kV=0.12 Vminpu=0.8 Vmaxpu=1.2 model=1 kW=2.4345519384807117 kvar=0.6629096983345695 Phases=1 yearly=res_kw_8140_pu

New Load.load_p13ulv14198_2 conn=wye bus1=p13ulv14198.2 kV=0.12 Vminpu=0.8 Vmaxpu=1.2 model=1 kW=2.4345519384807117 kvar=0.6629096983345695 Phases=1 yearly=res_kw_8140_pu

New Load.load_p13ulv14199_1 conn=wye bus1=p13ulv14199.1 kV=0.12 Vminpu=0.8 Vmaxpu=1.2 model=1 kW=1.284079245362969 kvar=0.4142304830366144 Phases=1 yearly=res_kw_5095_pu

New Load.load_p13ulv14199_2 conn=wye bus1=p13ulv14199.2 kV=0.12 Vminpu=0.8 Vmaxpu=1.2 model=1 kW=1.284079245362969 kvar=0.4142304830366144 Phases=1 yearly=res_kw_5095_pu

New Load.load_p13ulv14200_1 conn=wye bus1=p13ulv14200.1 kV=0.12 Vminpu=0.8 Vmaxpu=1.2 model=1 kW=2.0010778415191557 kvar=0.1851858368488383 Phases=1 yearly=res_kw_451_pu

New Load.load_p13ulv14200_2 conn=wye bus1=p13ulv14200.2 kV=0.12 Vminpu=0.8 Vmaxpu=1.2 model=1 kW=2.0010778415191557 kvar=0.1851858368488383 Phases=1 yearly=res_kw_451_pu

New Load.load_p13ulv14201_1 conn=wye bus1=p13ulv14201.1 kV=0.12 Vminpu=0.8 Vmaxpu=1.2 model=1 kW=11.586907037587332 kvar=1.9206571994210737 Phases=1 yearly=res_kw_4516_pu

New Load.load_p13ulv14201_2 conn=wye bus1=p13ulv14201.2 kV=0.12 Vminpu=0.8 Vmaxpu=1.2 model=1 kW=11.586907037587332 kvar=1.9206571994210737 Phases=1 yearly=res_kw_4516_pu

New Load.load_p13ulv14202_1 conn=wye bus1=p13ulv14202.1 kV=0.12 Vminpu=0.8 Vmaxpu=1.2 model=1 kW=2.8960916576388023 kvar=0.9964685634210223 Phases=1 yearly=res_kw_12807_pu

New Load.load_p13ulv14202_2 conn=wye bus1=p13ulv14202.2 kV=0.12 Vminpu=0.8 Vmaxpu=1.2 model=1 kW=2.8960916576388023 kvar=0.9964685634210223 Phases=1 yearly=res_kw_12807_pu

New Load.load_p13ulv14203_1 conn=wye bus1=p13ulv14203.1 kV=0.12 Vminpu=0.8 Vmaxpu=1.2 model=1 kW=3.5127978636027604 kvar=0.9794275484237299 Phases=1 yearly=res_kw_12216_pu

New Load.load_p13ulv14203_2 conn=wye bus1=p13ulv14203.2 kV=0.12 Vminpu=0.8 Vmaxpu=1.2 model=1 kW=3.5127978636027604 kvar=0.9794275484237299 Phases=1 yearly=res_kw_12216_pu

New Load.load_p13ulv14204_1 conn=wye bus1=p13ulv14204.1 kV=0.12 Vminpu=0.8 Vmaxpu=1.2 model=1 kW=3.6747474220555727 kvar=0.11776568839120602 Phases=1 yearly=res_kw_319_pu

New Load.load_p13ulv14204_2 conn=wye bus1=p13ulv14204.2 kV=0.12 Vminpu=0.8 Vmaxpu=1.2 model=1 kW=3.6747474220555727 kvar=0.11776568839120602 Phases=1 yearly=res_kw_319_pu

New Load.load_p13ulv14205_1 conn=wye bus1=p13ulv14205.1 kV=0.12 Vminpu=0.8 Vmaxpu=1.2 model=1 kW=1.8179671094194252 kvar=0.578895970655964 Phases=1 yearly=res_kw_5823_pu

New Load.load_p13ulv14205_2 conn=wye bus1=p13ulv14205.2 kV=0.12 Vminpu=0.8 Vmaxpu=1.2 model=1 kW=1.8179671094194252 kvar=0.578895970655964 Phases=1 yearly=res_kw_5823_pu

New Load.load_p13ulv14206_1 conn=wye bus1=p13ulv14206.1 kV=0.12 Vminpu=0.8 Vmaxpu=1.2 model=1 kW=7.043744081036207 kvar=1.3364700722397445 Phases=1 yearly=res_kw_1142_pu

New Load.load_p13ulv14206_2 conn=wye bus1=p13ulv14206.2 kV=0.12 Vminpu=0.8 Vmaxpu=1.2 model=1 kW=7.043744081036207 kvar=1.3364700722397445 Phases=1 yearly=res_kw_1142_pu

New Load.load_p13ulv14207_1 conn=wye bus1=p13ulv14207.1 kV=0.12 Vminpu=0.8 Vmaxpu=1.2 model=1 kW=3.6755133731704053 kvar=0.7539218062909313 Phases=1 yearly=res_kw_13545_pu

New Load.load_p13ulv14207_2 conn=wye bus1=p13ulv14207.2 kV=0.12 Vminpu=0.8 Vmaxpu=1.2 model=1 kW=3.6755133731704053 kvar=0.7539218062909313 Phases=1 yearly=res_kw_13545_pu

New Load.load_p13ulv14208_1 conn=wye bus1=p13ulv14208.1 kV=0.12 Vminpu=0.8 Vmaxpu=1.2 model=1 kW=3.102923847718961 kvar=0.37659481581436904 Phases=1 yearly=res_kw_5537_pu

New Load.load_p13ulv14208_2 conn=wye bus1=p13ulv14208.2 kV=0.12 Vminpu=0.8 Vmaxpu=1.2 model=1 kW=3.102923847718961 kvar=0.37659481581436904 Phases=1 yearly=res_kw_5537_pu

New Load.load_p13ulv14209_1 conn=wye bus1=p13ulv14209.1 kV=0.12 Vminpu=0.8 Vmaxpu=1.2 model=1 kW=4.262954543726521 kvar=0.5048917887531463 Phases=1 yearly=res_kw_4165_pu

New Load.load_p13ulv14209_2 conn=wye bus1=p13ulv14209.2 kV=0.12 Vminpu=0.8 Vmaxpu=1.2 model=1 kW=4.262954543726521 kvar=0.5048917887531463 Phases=1 yearly=res_kw_4165_pu

New Load.load_p13ulv14210_1 conn=wye bus1=p13ulv14210.1 kV=0.12 Vminpu=0.8 Vmaxpu=1.2 model=1 kW=2.6400982870935055 kvar=0.6029930298758219 Phases=1 yearly=res_kw_5685_pu

New Load.load_p13ulv14210_2 conn=wye bus1=p13ulv14210.2 kV=0.12 Vminpu=0.8 Vmaxpu=1.2 model=1 kW=2.6400982870935055 kvar=0.6029930298758219 Phases=1 yearly=res_kw_5685_pu

New Load.load_p13ulv14211_1 conn=wye bus1=p13ulv14211.1 kV=0.12 Vminpu=0.8 Vmaxpu=1.2 model=1 kW=3.3779188875204915 kvar=0.1991516492044874 Phases=1 yearly=res_kw_14063_pu

New Load.load_p13ulv14211_2 conn=wye bus1=p13ulv14211.2 kV=0.12 Vminpu=0.8 Vmaxpu=1.2 model=1 kW=3.3779188875204915 kvar=0.1991516492044874 Phases=1 yearly=res_kw_14063_pu

New Load.load_p13ulv14212_1 conn=wye bus1=p13ulv14212.1 kV=0.12 Vminpu=0.8 Vmaxpu=1.2 model=1 kW=3.5094733942856577 kvar=0.7196025543323536 Phases=1 yearly=res_kw_3030_pu

New Load.load_p13ulv14212_2 conn=wye bus1=p13ulv14212.2 kV=0.12 Vminpu=0.8 Vmaxpu=1.2 model=1 kW=3.5094733942856577 kvar=0.7196025543323536 Phases=1 yearly=res_kw_3030_pu

New Load.load_p13ulv14213_1 conn=wye bus1=p13ulv14213.1 kV=0.12 Vminpu=0.8 Vmaxpu=1.2 model=1 kW=4.550072022942251 kvar=1.13977112874647 Phases=1 yearly=com_kw_2449_pu

New Load.load_p13ulv14213_2 conn=wye bus1=p13ulv14213.2 kV=0.12 Vminpu=0.8 Vmaxpu=1.2 model=1 kW=4.550072022942251 kvar=1.13977112874647 Phases=1 yearly=com_kw_2449_pu

New Load.load_p13ulv14214_1 conn=wye bus1=p13ulv14214.1 kV=0.12 Vminpu=0.8 Vmaxpu=1.2 model=1 kW=4.492256680507153 kvar=1.1464835322318498 Phases=1 yearly=res_kw_2129_pu

New Load.load_p13ulv14214_2 conn=wye bus1=p13ulv14214.2 kV=0.12 Vminpu=0.8 Vmaxpu=1.2 model=1 kW=4.492256680507153 kvar=1.1464835322318498 Phases=1 yearly=res_kw_2129_pu

New Load.load_p13ulv14215_1 conn=wye bus1=p13ulv14214.1 kV=0.12 Vminpu=0.8 Vmaxpu=1.2 model=1 kW=4.966871133201625 kvar=1.668687483411894 Phases=1 yearly=res_kw_2882_pu

New Load.load_p13ulv14215_2 conn=wye bus1=p13ulv14214.2 kV=0.12 Vminpu=0.8 Vmaxpu=1.2 model=1 kW=4.966871133201625 kvar=1.668687483411894 Phases=1 yearly=res_kw_2882_pu

New Load.load_p13ulv14216_1 conn=wye bus1=p13ulv14216.1 kV=0.12 Vminpu=0.8 Vmaxpu=1.2 model=1 kW=3.2897155102948203 kvar=0.8002891232283709 Phases=1 yearly=res_kw_7476_pu

New Load.load_p13ulv14216_2 conn=wye bus1=p13ulv14216.2 kV=0.12 Vminpu=0.8 Vmaxpu=1.2 model=1 kW=3.2897155102948203 kvar=0.8002891232283709 Phases=1 yearly=res_kw_7476_pu

New Load.load_p13ulv14217_1 conn=wye bus1=p13ulv14217.1 kV=0.12 Vminpu=0.8 Vmaxpu=1.2 model=1 kW=6.1588361592850465 kvar=1.650578323214133 Phases=1 yearly=res_kw_5750_pu

New Load.load_p13ulv14217_2 conn=wye bus1=p13ulv14217.2 kV=0.12 Vminpu=0.8 Vmaxpu=1.2 model=1 kW=6.1588361592850465 kvar=1.650578323214133 Phases=1 yearly=res_kw_5750_pu

New Load.load_p13ulv14218_1 conn=wye bus1=p13ulv14218.1 kV=0.12 Vminpu=0.8 Vmaxpu=1.2 model=1 kW=5.057928166989142 kvar=0.1883767745844791 Phases=1 yearly=res_kw_15217_pu

New Load.load_p13ulv14218_2 conn=wye bus1=p13ulv14218.2 kV=0.12 Vminpu=0.8 Vmaxpu=1.2 model=1 kW=5.057928166989142 kvar=0.1883767745844791 Phases=1 yearly=res_kw_15217_pu

New Load.load_p13ulv14219_1 conn=wye bus1=p13ulv14219.1 kV=0.12 Vminpu=0.8 Vmaxpu=1.2 model=1 kW=4.284548856955488 kvar=1.7000611643703119 Phases=1 yearly=res_kw_13828_pu

New Load.load_p13ulv14219_2 conn=wye bus1=p13ulv14219.2 kV=0.12 Vminpu=0.8 Vmaxpu=1.2 model=1 kW=4.284548856955488 kvar=1.7000611643703119 Phases=1 yearly=res_kw_13828_pu

New Load.load_p13ulv14220_1 conn=wye bus1=p13ulv14220.1 kV=0.12 Vminpu=0.8 Vmaxpu=1.2 model=1 kW=10.128349135742953 kvar=0.5337568205093138 Phases=1 yearly=res_kw_777_pu

New Load.load_p13ulv14220_2 conn=wye bus1=p13ulv14220.2 kV=0.12 Vminpu=0.8 Vmaxpu=1.2 model=1 kW=10.128349135742953 kvar=0.5337568205093138 Phases=1 yearly=res_kw_777_pu

New Load.load_p13ulv14221_1 conn=wye bus1=p13ulv14221.1 kV=0.12 Vminpu=0.8 Vmaxpu=1.2 model=1 kW=1.7142321347668041 kvar=0.6570798963984648 Phases=1 yearly=res_kw_3494_pu

New Load.load_p13ulv14221_2 conn=wye bus1=p13ulv14221.2 kV=0.12 Vminpu=0.8 Vmaxpu=1.2 model=1 kW=1.7142321347668041 kvar=0.6570798963984648 Phases=1 yearly=res_kw_3494_pu

New Load.load_p13ulv14222_1 conn=wye bus1=p13ulv14222.1 kV=0.12 Vminpu=0.8 Vmaxpu=1.2 model=1 kW=3.229843644012216 kvar=1.1267715018125612 Phases=1 yearly=res_kw_13787_pu

New Load.load_p13ulv14222_2 conn=wye bus1=p13ulv14222.2 kV=0.12 Vminpu=0.8 Vmaxpu=1.2 model=1 kW=3.229843644012216 kvar=1.1267715018125612 Phases=1 yearly=res_kw_13787_pu

New Load.load_p13ulv14223_1 conn=wye bus1=p13ulv14223.1 kV=0.12 Vminpu=0.8 Vmaxpu=1.2 model=1 kW=4.004851768905169 kvar=1.2136128712066532 Phases=1 yearly=res_kw_10857_pu

New Load.load_p13ulv14223_2 conn=wye bus1=p13ulv14223.2 kV=0.12 Vminpu=0.8 Vmaxpu=1.2 model=1 kW=4.004851768905169 kvar=1.2136128712066532 Phases=1 yearly=res_kw_10857_pu

New Load.load_p13ulv14224_1 conn=wye bus1=p13ulv14224.1 kV=0.12 Vminpu=0.8 Vmaxpu=1.2 model=1 kW=4.525303114747101 kvar=0.4722687720205482 Phases=1 yearly=res_kw_1335_pu

New Load.load_p13ulv14224_2 conn=wye bus1=p13ulv14224.2 kV=0.12 Vminpu=0.8 Vmaxpu=1.2 model=1 kW=4.525303114747101 kvar=0.4722687720205482 Phases=1 yearly=res_kw_1335_pu

New Load.load_p13ulv14225_1 conn=wye bus1=p13ulv14225.1 kV=0.12 Vminpu=0.8 Vmaxpu=1.2 model=1 kW=4.237064396976419 kvar=0.25029256707639685 Phases=1 yearly=com_kw_1949_pu

New Load.load_p13ulv14225_2 conn=wye bus1=p13ulv14225.2 kV=0.12 Vminpu=0.8 Vmaxpu=1.2 model=1 kW=4.237064396976419 kvar=0.25029256707639685 Phases=1 yearly=com_kw_1949_pu

New Load.load_p13ulv14226_1 conn=wye bus1=p13ulv14226.1 kV=0.12 Vminpu=0.8 Vmaxpu=1.2 model=1 kW=9.501781726090975 kvar=2.3894632731268057 Phases=1 yearly=com_kw_20739_pu

New Load.load_p13ulv14226_2 conn=wye bus1=p13ulv14226.2 kV=0.12 Vminpu=0.8 Vmaxpu=1.2 model=1 kW=9.501781726090975 kvar=2.3894632731268057 Phases=1 yearly=com_kw_20739_pu

New Load.load_p13ulv14227_1 conn=wye bus1=p13ulv14227.1 kV=0.12 Vminpu=0.8 Vmaxpu=1.2 model=1 kW=4.237064396976419 kvar=0.25029256707639685 Phases=1 yearly=com_kw_1949_pu

New Load.load_p13ulv14227_2 conn=wye bus1=p13ulv14227.2 kV=0.12 Vminpu=0.8 Vmaxpu=1.2 model=1 kW=4.237064396976419 kvar=0.25029256707639685 Phases=1 yearly=com_kw_1949_pu

New Load.load_p13ulv14228 conn=wye bus1=p13ulv14228.1.2.3 kV=0.48 Vminpu=0.8 Vmaxpu=1.2 model=1 kW=19.888602737190393 kvar=5.237265432207811 Phases=3 yearly=com_kw_29439_pu

New Load.load_p13ulv14229_1 conn=wye bus1=p13ulv14229.1 kV=0.12 Vminpu=0.8 Vmaxpu=1.2 model=1 kW=5.9086077308933955 kvar=2.4385341974082073 Phases=1 yearly=res_kw_8838_pu

New Load.load_p13ulv14229_2 conn=wye bus1=p13ulv14229.2 kV=0.12 Vminpu=0.8 Vmaxpu=1.2 model=1 kW=5.9086077308933955 kvar=2.4385341974082073 Phases=1 yearly=res_kw_8838_pu

New Load.load_p13ulv14230_1 conn=wye bus1=p13ulv14230.1 kV=0.12 Vminpu=0.8 Vmaxpu=1.2 model=1 kW=1.284079245362969 kvar=0.4142304830366144 Phases=1 yearly=res_kw_5095_pu

New Load.load_p13ulv14230_2 conn=wye bus1=p13ulv14230.2 kV=0.12 Vminpu=0.8 Vmaxpu=1.2 model=1 kW=1.284079245362969 kvar=0.4142304830366144 Phases=1 yearly=res_kw_5095_pu

New Load.load_p13ulv14231_1 conn=wye bus1=p13ulv14231.1 kV=0.12 Vminpu=0.8 Vmaxpu=1.2 model=1 kW=6.734209724518478 kvar=0.6095090434289075 Phases=1 yearly=res_kw_4825_pu

New Load.load_p13ulv14231_2 conn=wye bus1=p13ulv14231.2 kV=0.12 Vminpu=0.8 Vmaxpu=1.2 model=1 kW=6.734209724518478 kvar=0.6095090434289075 Phases=1 yearly=res_kw_4825_pu

New Load.load_p13ulv14232_1 conn=wye bus1=p13ulv14232.1 kV=0.12 Vminpu=0.8 Vmaxpu=1.2 model=1 kW=6.443939551742727 kvar=1.9103797929484774 Phases=1 yearly=res_kw_4541_pu

New Load.load_p13ulv14232_2 conn=wye bus1=p13ulv14232.2 kV=0.12 Vminpu=0.8 Vmaxpu=1.2 model=1 kW=6.443939551742727 kvar=1.9103797929484774 Phases=1 yearly=res_kw_4541_pu

New Load.load_p13ulv14233_1 conn=wye bus1=p13ulv14233.1 kV=0.12 Vminpu=0.8 Vmaxpu=1.2 model=1 kW=3.5127978636027604 kvar=0.9794275484237299 Phases=1 yearly=res_kw_12216_pu

New Load.load_p13ulv14233_2 conn=wye bus1=p13ulv14233.2 kV=0.12 Vminpu=0.8 Vmaxpu=1.2 model=1 kW=3.5127978636027604 kvar=0.9794275484237299 Phases=1 yearly=res_kw_12216_pu

New Load.load_p13ulv14234_1 conn=wye bus1=p13ulv14234.1 kV=0.12 Vminpu=0.8 Vmaxpu=1.2 model=1 kW=1.811785045781775 kvar=0.8857425190479955 Phases=1 yearly=res_kw_409_pu

New Load.load_p13ulv14234_2 conn=wye bus1=p13ulv14234.2 kV=0.12 Vminpu=0.8 Vmaxpu=1.2 model=1 kW=1.811785045781775 kvar=0.8857425190479955 Phases=1 yearly=res_kw_409_pu

New Load.load_p13ulv14235_1 conn=wye bus1=p13ulv14235.1 kV=0.12 Vminpu=0.8 Vmaxpu=1.2 model=1 kW=5.606799134517589 kvar=0.5785487953375874 Phases=1 yearly=res_kw_5619_pu

New Load.load_p13ulv14235_2 conn=wye bus1=p13ulv14235.2 kV=0.12 Vminpu=0.8 Vmaxpu=1.2 model=1 kW=5.606799134517589 kvar=0.5785487953375874 Phases=1 yearly=res_kw_5619_pu

New Load.load_p13ulv14236_1 conn=wye bus1=p13ulv14236.1 kV=0.12 Vminpu=0.8 Vmaxpu=1.2 model=1 kW=2.7071371409921654 kvar=1.0605988772240902 Phases=1 yearly=res_kw_10262_pu

New Load.load_p13ulv14236_2 conn=wye bus1=p13ulv14236.2 kV=0.12 Vminpu=0.8 Vmaxpu=1.2 model=1 kW=2.7071371409921654 kvar=1.0605988772240902 Phases=1 yearly=res_kw_10262_pu

New Load.load_p13ulv14237_1 conn=wye bus1=p13ulv14237.1 kV=0.12 Vminpu=0.8 Vmaxpu=1.2 model=1 kW=4.237064396976419 kvar=0.25029256707639685 Phases=1 yearly=com_kw_1949_pu

New Load.load_p13ulv14237_2 conn=wye bus1=p13ulv14237.2 kV=0.12 Vminpu=0.8 Vmaxpu=1.2 model=1 kW=4.237064396976419 kvar=0.25029256707639685 Phases=1 yearly=com_kw_1949_pu

New Load.load_p13ulv14238_1 conn=wye bus1=p13ulv14238.1 kV=0.12 Vminpu=0.8 Vmaxpu=1.2 model=1 kW=2.3868064571606706 kvar=0.6451053246368827 Phases=1 yearly=com_kw_34334_pu

New Load.load_p13ulv14238_2 conn=wye bus1=p13ulv14238.2 kV=0.12 Vminpu=0.8 Vmaxpu=1.2 model=1 kW=2.3868064571606706 kvar=0.6451053246368827 Phases=1 yearly=com_kw_34334_pu

New Load.load_p13ulv14239_1 conn=wye bus1=p13ulv14239.1 kV=0.12 Vminpu=0.8 Vmaxpu=1.2 model=1 kW=4.874403962694523 kvar=0.9992217738913552 Phases=1 yearly=res_kw_6544_pu

New Load.load_p13ulv14239_2 conn=wye bus1=p13ulv14239.2 kV=0.12 Vminpu=0.8 Vmaxpu=1.2 model=1 kW=4.874403962694523 kvar=0.9992217738913552 Phases=1 yearly=res_kw_6544_pu

New Load.load_p13ulv14240_1 conn=wye bus1=p13ulv14240.1 kV=0.12 Vminpu=0.8 Vmaxpu=1.2 model=1 kW=6.310228114016567 kvar=1.4900986353385972 Phases=1 yearly=res_kw_14430_pu

New Load.load_p13ulv14240_2 conn=wye bus1=p13ulv14240.2 kV=0.12 Vminpu=0.8 Vmaxpu=1.2 model=1 kW=6.310228114016567 kvar=1.4900986353385972 Phases=1 yearly=res_kw_14430_pu

New Load.load_p13ulv14241_1 conn=wye bus1=p13ulv14241.1 kV=0.12 Vminpu=0.8 Vmaxpu=1.2 model=1 kW=3.0684215495016467 kvar=0.7572536724867349 Phases=1 yearly=com_kw_39334_pu
