New Line.l(r:p13udt1342lv-p13ulv97242) Units=km Length=0.0124245 bus1=p13udt1342lv.1.2 bus2=p13ulv97242.1.2 switch=n enabled=y phases=2 Linecode=1P_UG_AL_1/0_Brenau_2

New Line.l(r:p13udm5802-p13ulv3487) Units=km Length=0.015095 bus1=p13udm5802.1.2 bus2=p13ulv3487.1.2 switch=n enabled=y phases=2 Linecode=1P_UG_AL_1/0_Brenau_2

New Line.l(r:p13udm5802-p13ulv97228) Units=km Length=0.0125256 bus1=p13udm5802.1.2 bus2=p13ulv97228.1.2 switch=n enabled=y phases=2 Linecode=1P_UG_AL_1/0_Brenau_2

New Line.l(r:p13udm5802-p13udt1342lv) Units=km Length=0.0095659 bus1=p13udt1342lv.1.2 bus2=p13udm5802.1.2 switch=n enabled=y phases=2 Linecode=1P_UG_AL_4/0_Sweetbriar_2

New Line.l(r:p13udm5803-p13ulv94246) Units=km Length=0.0164851 bus1=p13udm5803.1.2 bus2=p13ulv94246.1.2 switch=n enabled=y phases=2 Linecode=1P_UG_AL_1/0_Brenau_2

New Line.l(r:p13udm5803-p13ulv97259) Units=km Length=0.0131103 bus1=p13udm5803.1.2 bus2=p13ulv97259.1.2 switch=n enabled=y phases=2 Linecode=1P_UG_AL_1/0_Brenau_2

New Line.l(r:p13udm5803-p13udt1342lv) Units=km Length=0.0095659 bus1=p13udt1342lv.1.2 bus2=p13udm5803.1.2 switch=n enabled=y phases=2 Linecode=1P_UG_AL_1/0_Brenau_2

New Line.l(r:p13udt1343lv-p13ulv99081) Units=km Length=0.012900100000000001 bus1=p13udt1343lv.1.2 bus2=p13ulv99081.1.2 switch=n enabled=y phases=2 Linecode=1P_UG_AL_1/0_Brenau_2

New Line.l(r:p13udm5807-p13ulv3488) Units=km Length=0.0131379 bus1=p13udm5807.1.2 bus2=p13ulv3488.1.2 switch=n enabled=y phases=2 Linecode=1P_UG_AL_1/0_Brenau_2

New Line.l(r:p13udm5807-p13udt1343lv) Units=km Length=0.00862353 bus1=p13udt1343lv.1.2 bus2=p13udm5807.1.2 switch=n enabled=y phases=2 Linecode=1P_UG_AL_1/0_Brenau_2

New Line.l(r:p13udm5808-p13ulv94128) Units=km Length=0.0116826 bus1=p13udm5808.1.2 bus2=p13ulv94128.1.2 switch=n enabled=y phases=2 Linecode=1P_UG_AL_1/0_Brenau_2

New Line.l(r:p13udm5808-p13ulv99066) Units=km Length=0.0144728 bus1=p13udm5808.1.2 bus2=p13ulv99066.1.2 switch=n enabled=y phases=2 Linecode=1P_UG_AL_1/0_Brenau_2

New Line.l(r:p13udm5808-p13ulv99073) Units=km Length=0.0378121 bus1=p13udm5808.1.2 bus2=p13ulv99073.1.2 switch=n enabled=y phases=2 Linecode=1P_UG_AL_1/0_Brenau_2

New Line.l(r:p13udm5808-p13udt1343lv) Units=km Length=0.00862353 bus1=p13udt1343lv.1.2 bus2=p13udm5808.1.2 switch=n enabled=y phases=2 Linecode=1P_UG_AL_1/0_Brenau_2

New Line.l(r:p13udt1344lv-p13ulv97191) Units=km Length=0.0131081 bus1=p13udt1344lv.1.2 bus2=p13ulv97191.1.2 switch=n enabled=y phases=2 Linecode=1P_UG_AL_1/0_Brenau_2

New Line.l(r:p13udt1344lv-p13ulv99096) Units=km Length=0.01345 bus1=p13udt1344lv.1.2 bus2=p13ulv99096.1.2 switch=n enabled=y phases=2 Linecode=1P_UG_AL_4/0_Sweetbriar_2

New Line.l(r:p13udm5812-p13ulv3489) Units=km Length=0.0145315 bus1=p13udm5812.1.2 bus2=p13ulv3489.1.2 switch=n enabled=y phases=2 Linecode=1P_UG_AL_1/0_Brenau_2

New Line.l(r:p13udm5812-p13udt1344lv) Units=km Length=0.00862353 bus1=p13udt1344lv.1.2 bus2=p13udm5812.1.2 switch=n enabled=y phases=2 Linecode=1P_UG_AL_1/0_Brenau_2

New Line.l(r:p13udm5817-p13ulv97508) Units=km Length=0.013415 bus1=p13udm5817.1.2 bus2=p13ulv97508.1.2 switch=n enabled=y phases=2 Linecode=1P_UG_AL_1/0_Brenau_2

New Line.l(r:p13udm5817-p13ulv97550) Units=km Length=0.0107504 bus1=p13udm5817.1.2 bus2=p13ulv97550.1.2 switch=n enabled=y phases=2 Linecode=1P_UG_AL_1/0_Brenau_2

New Line.l(r:p13udm5815-p13ulv3490) Units=km Length=0.0154112 bus1=p13udm5815.1.2 bus2=p13ulv3490.1.2 switch=n enabled=y phases=2 Linecode=1P_UG_AL_1/0_Brenau_2

New Line.l(r:p13udm5815-p13udm5817) Units=km Length=0.00958658 bus1=p13udm5817.1.2 bus2=p13udm5815.1.2 switch=n enabled=y phases=2 Linecode=1P_UG_AL_1/0_Brenau_2

New Line.l(r:p13udm5817-p13udt1345lv) Units=km Length=0.00958658 bus1=p13udt1345lv.1.2 bus2=p13udm5817.1.2 switch=n enabled=y phases=2 Linecode=1P_UG_AL_4/0_Sweetbriar_2

New Line.l(r:p13udm5818-p13ulv97525) Units=km Length=0.010678000000000002 bus1=p13udm5818.1.2 bus2=p13ulv97525.1.2 switch=n enabled=y phases=2 Linecode=1P_UG_AL_2/0_Converse_2

New Line.l(r:p13udm5816-p13ulv97496) Units=km Length=0.00397775 bus1=p13udm5816.1.2 bus2=p13ulv97496.1.2 switch=n enabled=y phases=2 Linecode=1P_UG_AL_1/0_Brenau_2

New Line.l(r:p13udm5816-p13udm5818) Units=km Length=0.00999592 bus1=p13udm5818.1.2 bus2=p13udm5816.1.2 switch=n enabled=y phases=2 Linecode=1P_UG_AL_1/0_Brenau_2

New Line.l(r:p13udm5818-p13udt1345lv) Units=km Length=0.00959388 bus1=p13udt1345lv.1.2 bus2=p13udm5818.1.2 switch=n enabled=y phases=2 Linecode=1P_UG_AL_4/0_Sweetbriar_2

New Line.l(r:p13udt1346lv-p13ulv97423) Units=km Length=0.009152220000000003 bus1=p13udt1346lv.1.2 bus2=p13ulv97423.1.2 switch=n enabled=y phases=2 Linecode=1P_UG_AL_1/0_Brenau_2

New Line.l(r:p13udm5821-p13ulv3492) Units=km Length=0.00760016 bus1=p13udm5821.1.2 bus2=p13ulv3492.1.2 switch=n enabled=y phases=2 Linecode=1P_UG_AL_1/0_Brenau_2

New Line.l(r:p13udm5821-p13ulv97471) Units=km Length=0.00714986 bus1=p13udm5821.1.2 bus2=p13ulv97471.1.2 switch=n enabled=y phases=2 Linecode=1P_UG_AL_1/0_Brenau_2

New Line.l(r:p13udm5820-p13ulv3491) Units=km Length=0.00820402 bus1=p13udm5820.1.2 bus2=p13ulv3491.1.2 switch=n enabled=y phases=2 Linecode=1P_UG_AL_1/0_Brenau_2

New Line.l(r:p13udm5827-p13ulv97480) Units=km Length=0.00803562 bus1=p13udm5827.1.2 bus2=p13ulv97480.1.2 switch=n enabled=y phases=2 Linecode=1P_UG_AL_1/0_Brenau_2

New Line.l(r:p13udm5820-p13udm5827) Units=km Length=0.00999592 bus1=p13udm5820.1.2 bus2=p13udm5827.1.2 switch=n enabled=y phases=2 Linecode=1P_UG_AL_1/0_Brenau_2

New Line.l(r:p13udm5820-p13udm5821) Units=km Length=0.0100033 bus1=p13udm5821.1.2 bus2=p13udm5820.1.2 switch=n enabled=y phases=2 Linecode=1P_UG_AL_4/0_Sweetbriar_2

New Line.l(r:p13udm5821-p13udt1346lv) Units=km Length=0.0099892 bus1=p13udt1346lv.1.2 bus2=p13udm5821.1.2 switch=n enabled=y phases=2 Linecode=1P_UG_AL_4/0_Sweetbriar_2

New Line.l(r:p13udm5823-p13ulv97411) Units=km Length=0.0081095 bus1=p13udm5823.1.2 bus2=p13ulv97411.1.2 switch=n enabled=y phases=2 Linecode=1P_UG_AL_1/0_Brenau_2

New Line.l(r:p13udm5822-p13ulv97398) Units=km Length=0.00875969 bus1=p13udm5822.1.2 bus2=p13ulv97398.1.2 switch=n enabled=y phases=2 Linecode=1P_UG_AL_1/0_Brenau_2

New Line.l(r:p13udm5822-p13ulv97440) Units=km Length=0.00437416 bus1=p13udm5822.1.2 bus2=p13ulv97440.1.2 switch=n enabled=y phases=2 Linecode=1P_UG_AL_1/0_Brenau_2

New Line.l(r:p13udm5822-p13udm5823) Units=km Length=0.0100033 bus1=p13udm5823.1.2 bus2=p13udm5822.1.2 switch=n enabled=y phases=2 Linecode=1P_UG_AL_1/0_Brenau_2

New Line.l(r:p13udm5823-p13udt1346lv) Units=km Length=0.00999592 bus1=p13udt1346lv.1.2 bus2=p13udm5823.1.2 switch=n enabled=y phases=2 Linecode=1P_UG_AL_4/0_Sweetbriar_2

New Line.l(r:p13udm5828-p13ulv3493) Units=km Length=0.012185000000000001 bus1=p13udm5828.1.2 bus2=p13ulv3493.1.2 switch=n enabled=y phases=2 Linecode=1P_UG_AL_1/0_Brenau_2

New Line.l(r:p13udm5828-p13ulv99229) Units=km Length=0.0139767 bus1=p13udm5828.1.2 bus2=p13ulv99229.1.2 switch=n enabled=y phases=2 Linecode=1P_UG_AL_1/0_Brenau_2

New Line.l(r:p13udm5828-p13udt1347lv) Units=km Length=0.009697930000000002 bus1=p13udt1347lv.1.2 bus2=p13udm5828.1.2 switch=n enabled=y phases=2 Linecode=1P_UG_AL_1/0_Brenau_2

New Line.l(r:p13udm5831-p13ulv99275) Units=km Length=0.0123082 bus1=p13udm5831.1.2 bus2=p13ulv99275.1.2 switch=n enabled=y phases=2 Linecode=1P_UG_AL_1/0_Brenau_2

New Line.l(r:p13udm5829-p13ulv3495) Units=km Length=0.0129899 bus1=p13udm5829.1.2 bus2=p13ulv3495.1.2 switch=n enabled=y phases=2 Linecode=1P_UG_AL_1/0_Brenau_2

New Line.l(r:p13udm5829-p13udm5831) Units=km Length=0.009698600000000002 bus1=p13udm5831.1.2 bus2=p13udm5829.1.2 switch=n enabled=y phases=2 Linecode=1P_UG_AL_1/0_Brenau_2

New Line.l(r:p13udm5831-p13udt1347lv) Units=km Length=0.00970532 bus1=p13udt1347lv.1.2 bus2=p13udm5831.1.2 switch=n enabled=y phases=2 Linecode=1P_UG_AL_2/0_Converse_2

New Line.l(r:p13udt1348lv-p13ulv3494) Units=km Length=0.0133613 bus1=p13udt1348lv.1.2 bus2=p13ulv3494.1.2 switch=n enabled=y phases=2 Linecode=1P_UG_AL_1/0_Brenau_2

New Line.l(r:p13udm5833-p13ulv14618) Units=km Length=0.0119551 bus1=p13udm5833.1.2 bus2=p13ulv14618.1.2 switch=n enabled=y phases=2 Linecode=1P_UG_AL_1/0_Brenau_2

New Line.l(r:p13udm5834-p13ulv99179) Units=km Length=0.011457 bus1=p13udm5834.1.2 bus2=p13ulv99179.1.2 switch=n enabled=y phases=2 Linecode=1P_UG_AL_1/0_Brenau_2

New Line.l(r:p13udm5833-p13udm5834) Units=km Length=0.00984124 bus1=p13udm5833.1.2 bus2=p13udm5834.1.2 switch=n enabled=y phases=2 Linecode=1P_UG_AL_1/0_Brenau_2

New Line.l(r:p13udm5833-p13udt1348lv) Units=km Length=0.00984795 bus1=p13udt1348lv.1.2 bus2=p13udm5833.1.2 switch=n enabled=y phases=2 Linecode=1P_UG_AL_4/0_Sweetbriar_2

New Line.l(r:p13udm5835-p13ulv99214) Units=km Length=0.0140314 bus1=p13udm5835.1.2 bus2=p13ulv99214.1.2 switch=n enabled=y phases=2 Linecode=1P_UG_AL_1/0_Brenau_2

New Line.l(r:p13udm5835-p13udt1348lv) Units=km Length=0.00967846 bus1=p13udt1348lv.1.2 bus2=p13udm5835.1.2 switch=n enabled=y phases=2 Linecode=1P_UG_AL_1/0_Brenau_2

New Line.l(r:p13udm5836-p13ulv3497) Units=km Length=0.0158357 bus1=p13udm5836.1.2 bus2=p13ulv3497.1.2 switch=n enabled=y phases=2 Linecode=1P_UG_AL_1/0_Brenau_2

New Line.l(r:p13udm5836-p13ulv99189) Units=km Length=0.0111936 bus1=p13udm5836.1.2 bus2=p13ulv99189.1.2 switch=n enabled=y phases=2 Linecode=1P_UG_AL_1/0_Brenau_2

New Line.l(r:p13udm5838-p13ulv14617) Units=km Length=0.0118723 bus1=p13udm5838.1.2 bus2=p13ulv14617.1.2 switch=n enabled=y phases=2 Linecode=1P_UG_AL_2/0_Converse_2

New Line.l(r:p13udm5838-p13ulv99227) Units=km Length=0.0131098 bus1=p13udm5838.1.2 bus2=p13ulv99227.1.2 switch=n enabled=y phases=2 Linecode=1P_UG_AL_1/0_Brenau_2

New Line.l(r:p13udm5836-p13udm5838) Units=km Length=0.00967846 bus1=p13udm5836.1.2 bus2=p13udm5838.1.2 switch=n enabled=y phases=2 Linecode=1P_UG_AL_4/0_Sweetbriar_2_2

New Line.l(r:p13udm5836-p13udt1349lv) Units=km Length=0.00968516 bus1=p13udt1349lv.1.2 bus2=p13udm5836.1.2 switch=n enabled=y phases=2 Linecode=1P_UG_AL_4/0_Sweetbriar_2_3

New Line.l(r:p13udm5837-p13ulv3498) Units=km Length=0.01567 bus1=p13udm5837.1.2 bus2=p13ulv3498.1.2 switch=n enabled=y phases=2 Linecode=1P_UG_AL_1/0_Brenau_2

New Line.l(r:p13udm5837-p13ulv99198) Units=km Length=0.033041100000000004 bus1=p13udm5837.1.2 bus2=p13ulv99198.1.2 switch=n enabled=y phases=2 Linecode=1P_UG_AL_1/0_Brenau_2

New Line.l(r:p13udm5837-p13ulv99213) Units=km Length=0.012943 bus1=p13udm5837.1.2 bus2=p13ulv99213.1.2 switch=n enabled=y phases=2 Linecode=1P_UG_AL_1/0_Brenau_2

New Line.l(r:p13udm5843-p13ulv99230) Units=km Length=0.015339 bus1=p13udm5843.1.2 bus2=p13ulv99230.1.2 switch=n enabled=y phases=2 Linecode=1P_UG_AL_1/0_Brenau_2

New Line.l(r:p13udm5837-p13udm5843) Units=km Length=0.00967846 bus1=p13udm5837.1.2 bus2=p13udm5843.1.2 switch=n enabled=y phases=2 Linecode=1P_UG_AL_1/0_Brenau_2

New Line.l(r:p13udm5837-p13udt1349lv) Units=km Length=0.00967846 bus1=p13udt1349lv.1.2 bus2=p13udm5837.1.2 switch=n enabled=y phases=2 Linecode=1P_UG_AL_4/0_Sweetbriar_2

New Line.l(r:p13udt1350lv-p13ulv99122) Units=km Length=0.0186756 bus1=p13udt1350lv.1.2 bus2=p13ulv99122.1.2 switch=n enabled=y phases=2 Linecode=1P_UG_AL_1/0_Brenau_2

New Line.l(r:p13udm5845-p13ulv99111) Units=km Length=0.019009700000000004 bus1=p13udm5845.1.2 bus2=p13ulv99111.1.2 switch=n enabled=y phases=2 Linecode=1P_UG_AL_1/0_Brenau_2

New Line.l(r:p13udm5845-p13ulv99182) Units=km Length=0.0097872 bus1=p13udm5845.1.2 bus2=p13ulv99182.1.2 switch=n enabled=y phases=2 Linecode=1P_UG_AL_1/0_Brenau_2

New Line.l(r:p13udm5848-p13ulv99160) Units=km Length=0.010196 bus1=p13udm5848.1.2 bus2=p13ulv99160.1.2 switch=n enabled=y phases=2 Linecode=1P_UG_AL_1/0_Brenau_2

New Line.l(r:p13udm5847-p13ulv99149) Units=km Length=0.00952442 bus1=p13udm5847.1.2 bus2=p13ulv99149.1.2 switch=n enabled=y phases=2 Linecode=1P_UG_AL_1/0_Brenau_2

New Line.l(r:p13udm5847-p13udm5848) Units=km Length=0.0179364 bus1=p13udm5848.1.2 bus2=p13udm5847.1.2 switch=n enabled=y phases=2 Linecode=1P_UG_AL_1/0_Brenau_2

New Line.l(r:p13udm5845-p13udm5848) Units=km Length=0.00896488 bus1=p13udm5845.1.2 bus2=p13udm5848.1.2 switch=n enabled=y phases=2 Linecode=1P_UG_AL_1/0_Brenau_2

New Line.l(r:p13udm5845-p13udt1350lv) Units=km Length=0.00897156 bus1=p13udt1350lv.1.2 bus2=p13udm5845.1.2 switch=n enabled=y phases=2 Linecode=1P_UG_AL_4/0_Sweetbriar_2

New Line.l(r:p13udm5850-p13ulv99196) Units=km Length=0.0110506 bus1=p13udm5850.1.2 bus2=p13ulv99196.1.2 switch=n enabled=y phases=2 Linecode=1P_UG_AL_1/0_Brenau_2

New Line.l(r:p13udm5851-p13ulv99215) Units=km Length=0.00978931 bus1=p13udm5851.1.2 bus2=p13ulv99215.1.2 switch=n enabled=y phases=2 Linecode=1P_UG_AL_1/0_Brenau_2

New Line.l(r:p13udm5844-p13ulv3499) Units=km Length=0.0111408 bus1=p13udm5844.1.2 bus2=p13ulv3499.1.2 switch=n enabled=y phases=2 Linecode=1P_UG_AL_1/0_Brenau_2

New Line.l(r:p13udm5852-p13ulv99238) Units=km Length=0.00969355 bus1=p13udm5852.1.2 bus2=p13ulv99238.1.2 switch=n enabled=y phases=2 Linecode=1P_UG_AL_1/0_Brenau_2

New Line.l(r:p13udm5844-p13udm5852) Units=km Length=0.0188612 bus1=p13udm5844.1.2 bus2=p13udm5852.1.2 switch=n enabled=y phases=2 Linecode=1P_UG_AL_1/0_Brenau_2

New Line.l(r:p13udm5844-p13udm5851) Units=km Length=0.00896488 bus1=p13udm5851.1.2 bus2=p13udm5844.1.2 switch=n enabled=y phases=2 Linecode=1P_UG_AL_1/0_Brenau_2

New Line.l(r:p13udm5850-p13udm5851) Units=km Length=0.00896413 bus1=p13udm5850.1.2 bus2=p13udm5851.1.2 switch=n enabled=y phases=2 Linecode=1P_UG_AL_2/0_Converse_2

New Line.l(r:p13udm5850-p13udt1350lv) Units=km Length=0.00896488 bus1=p13udt1350lv.1.2 bus2=p13udm5850.1.2 switch=n enabled=y phases=2 Linecode=1P_UG_AL_4/0_Sweetbriar_2

New Line.l(r:p13udm28274-p13ulv14553) Units=km Length=0.0153395 bus1=p13udm28274.1.2 bus2=p13ulv14553.1.2 switch=n enabled=y phases=2 Linecode=1P_UG_AL_1/0_Brenau_2

New Line.l(r:p13udm28273-p13ulv14552) Units=km Length=0.0101473 bus1=p13udm28273.1.2 bus2=p13ulv14552.1.2 switch=n enabled=y phases=2 Linecode=1P_UG_AL_1/0_Brenau_2

New Line.l(r:p13udm28278-p13ulv92272) Units=km Length=0.0356952 bus1=p13udm28278.1.2 bus2=p13ulv92272.1.2 switch=n enabled=y phases=2 Linecode=1P_UG_AL_1/0_Brenau_2

New Line.l(r:p13udm28273-p13udm28278) Units=km Length=0.0219724 bus1=p13udm28273.1.2 bus2=p13udm28278.1.2 switch=n enabled=y phases=2 Linecode=1P_UG_AL_1/0_Brenau_2

New Line.l(r:p13udm28273-p13udm28274) Units=km Length=0.00759416 bus1=p13udm28274.1.2 bus2=p13udm28273.1.2 switch=n enabled=y phases=2 Linecode=1P_UG_AL_1/0_Brenau_2

New Line.l(r:p13udm28274-p13udt6552lv) Units=km Length=0.00919288 bus1=p13udt6552lv.1.2 bus2=p13udm28274.1.2 switch=n enabled=y phases=2 Linecode=1P_UG_AL_1/0_Brenau_2

New Line.l(r:p13udm28275-p13ulv14554) Units=km Length=0.0115268 bus1=p13udm28275.1.2 bus2=p13ulv14554.1.2 switch=n enabled=y phases=2 Linecode=1P_UG_AL_1/0_Brenau_2

New Line.l(r:p13udm28275-p13ulv92269) Units=km Length=0.00944768 bus1=p13udm28275.1.2 bus2=p13ulv92269.1.2 switch=n enabled=y phases=2 Linecode=1P_UG_AL_1/0_Brenau_2

New Line.l(r:p13udm28276-p13ulv14555) Units=km Length=0.011180500000000001 bus1=p13udm28276.1.2 bus2=p13ulv14555.1.2 switch=n enabled=y phases=2 Linecode=1P_UG_AL_1/0_Brenau_2

New Line.l(r:p13udm28275-p13udm28276) Units=km Length=0.00919868 bus1=p13udm28275.1.2 bus2=p13udm28276.1.2 switch=n enabled=y phases=2 Linecode=1P_UG_AL_1/0_Brenau_2

New Line.l(r:p13udm28275-p13udt6552lv) Units=km Length=0.00919288 bus1=p13udt6552lv.1.2 bus2=p13udm28275.1.2 switch=n enabled=y phases=2 Linecode=1P_UG_AL_2/0_Converse_2

New Line.l(r:p13udt6553lv-p13ulv24422) Units=km Length=0.0283003 bus1=p13udt6553lv.1.2 bus2=p13ulv24422.1.2 switch=n enabled=y phases=2 Linecode=1P_UG_AL_1/0_Brenau_2

New Line.l(r:p13udt6553lv-p13ulv82612) Units=km Length=0.0111687 bus1=p13udt6553lv.1.2 bus2=p13ulv82612.1.2 switch=n enabled=y phases=2 Linecode=1P_UG_AL_1/0_Brenau_2

New Line.l(r:p13udt6553lv-p13ulv92938) Units=km Length=0.0138636 bus1=p13udt6553lv.1.2 bus2=p13ulv92938.1.2 switch=n enabled=y phases=2 Linecode=1P_UG_AL_1/0_Brenau_2

New Line.l(r:p13udm28280-p13ulv24420) Units=km Length=0.0106536 bus1=p13udm28280.1.2 bus2=p13ulv24420.1.2 switch=n enabled=y phases=2 Linecode=1P_UG_AL_1/0_Brenau_2

New Line.l(r:p13udm28279-p13ulv14556) Units=km Length=0.00951545 bus1=p13udm28279.1.2 bus2=p13ulv14556.1.2 switch=n enabled=y phases=2 Linecode=1P_UG_AL_1/0_Brenau_2

New Line.l(r:p13udm28279-p13udm28280) Units=km Length=0.0187214 bus1=p13udm28280.1.2 bus2=p13udm28279.1.2 switch=n enabled=y phases=2 Linecode=1P_UG_AL_1/0_Brenau_2

New Line.l(r:p13udm28280-p13udt6553lv) Units=km Length=0.0190488 bus1=p13udt6553lv.1.2 bus2=p13udm28280.1.2 switch=n enabled=y phases=2 Linecode=1P_UG_AL_1/0_Brenau_2

New Line.l(r:p13udm28282-p13ulv24423) Units=km Length=0.0305179 bus1=p13udm28282.1.2 bus2=p13ulv24423.1.2 switch=n enabled=y phases=2 Linecode=1P_UG_AL_1/0_Brenau_2

New Line.l(r:p13udm28282-p13ulv82605) Units=km Length=0.0111155 bus1=p13udm28282.1.2 bus2=p13ulv82605.1.2 switch=n enabled=y phases=2 Linecode=1P_UG_AL_1/0_Brenau_2

New Line.l(r:p13udm28282-p13ulv82618) Units=km Length=0.012593 bus1=p13udm28282.1.2 bus2=p13ulv82618.1.2 switch=n enabled=y phases=2 Linecode=1P_UG_AL_1/0_Brenau_2

New Line.l(r:p13udm28282-p13udt6553lv) Units=km Length=0.00952161 bus1=p13udt6553lv.1.2 bus2=p13udm28282.1.2 switch=n enabled=y phases=2 Linecode=1P_UG_AL_2/0_Converse_2

New Line.l(r:p13udm28288-p13ulv14574) Units=km Length=0.00396213 bus1=p13udm28288.1.2 bus2=p13ulv14574.1.2 switch=n enabled=y phases=2 Linecode=1P_UG_AL_1/0_Brenau_2

New Line.l(r:p13udm28288-p13ulv92376) Units=km Length=0.013943000000000002 bus1=p13udm28288.1.2 bus2=p13ulv92376.1.2 switch=n enabled=y phases=2 Linecode=1P_UG_AL_1/0_Brenau_2

New Line.l(r:p13udm28293-p13ulv92386) Units=km Length=0.0124121 bus1=p13udm28293.1.2 bus2=p13ulv92386.1.2 switch=n enabled=y phases=2 Linecode=1P_UG_AL_1/0_Brenau_2

New Line.l(r:p13udm28288-p13udm28293) Units=km Length=0.00914913 bus1=p13udm28288.1.2 bus2=p13udm28293.1.2 switch=n enabled=y phases=2 Linecode=1P_UG_AL_1/0_Brenau_2

New Line.l(r:p13udm28288-p13udt6554lv) Units=km Length=0.0183205 bus1=p13udt6554lv.1.2 bus2=p13udm28288.1.2 switch=n enabled=y phases=2 Linecode=1P_UG_AL_4/0_Sweetbriar_2

New Line.l(r:p13udm28290-p13ulv92370) Units=km Length=0.00822837 bus1=p13udm28290.1.2 bus2=p13ulv92370.1.2 switch=n enabled=y phases=2 Linecode=1P_UG_AL_1/0_Brenau_2

New Line.l(r:p13udm28287-p13ulv14557) Units=km Length=0.0109772 bus1=p13udm28287.1.2 bus2=p13ulv14557.1.2 switch=n enabled=y phases=2 Linecode=1P_UG_AL_1/0_Brenau_2

New Line.l(r:p13udm28287-p13ulv92367) Units=km Length=0.008176900000000003 bus1=p13udm28287.1.2 bus2=p13ulv92367.1.2 switch=n enabled=y phases=2 Linecode=1P_UG_AL_1/0_Brenau_2

New Line.l(r:p13udm28287-p13udm28290) Units=km Length=0.0199747 bus1=p13udm28290.1.2 bus2=p13udm28287.1.2 switch=n enabled=y phases=2 Linecode=1P_UG_AL_2/0_Converse_2

New Line.l(r:p13udm28290-p13udt6554lv) Units=km Length=0.0130745 bus1=p13udt6554lv.1.2 bus2=p13udm28290.1.2 switch=n enabled=y phases=2 Linecode=1P_UG_AL_4/0_Sweetbriar_2

New Line.l(r:p13udm28292-p13ulv92380) Units=km Length=0.00885249 bus1=p13udm28292.1.2 bus2=p13ulv92380.1.2 switch=n enabled=y phases=2 Linecode=1P_UG_AL_1/0_Brenau_2

New Line.l(r:p13udm28295-p13ulv92410) Units=km Length=0.00993354 bus1=p13udm28295.1.2 bus2=p13ulv92410.1.2 switch=n enabled=y phases=2 Linecode=1P_UG_AL_1/0_Brenau_2

New Line.l(r:p13udm28294-p13ulv92391) Units=km Length=0.008851580000000001 bus1=p13udm28294.1.2 bus2=p13ulv92391.1.2 switch=n enabled=y phases=2 Linecode=1P_UG_AL_1/0_Brenau_2

New Line.l(r:p13udm28294-p13udm28295) Units=km Length=0.00904005 bus1=p13udm28295.1.2 bus2=p13udm28294.1.2 switch=n enabled=y phases=2 Linecode=1P_UG_AL_1/0_Brenau_2

New Line.l(r:p13udm28292-p13udm28295) Units=km Length=0.009048070000000002 bus1=p13udm28292.1.2 bus2=p13udm28295.1.2 switch=n enabled=y phases=2 Linecode=1P_UG_AL_1/0_Brenau_2

New Line.l(r:p13udm28292-p13udt6554lv) Units=km Length=0.0181976 bus1=p13udt6554lv.1.2 bus2=p13udm28292.1.2 switch=n enabled=y phases=2 Linecode=1P_UG_AL_2/0_Converse_2

New Line.l(r:p13udt6555lv-p13ulv14558) Units=km Length=0.0204556 bus1=p13udt6555lv.1.2 bus2=p13ulv14558.1.2 switch=n enabled=y phases=2 Linecode=1P_OH_AL_2/0_Rucina_2

New Line.l(r:p13udm28297-p13ulv92358) Units=km Length=0.0150964 bus1=p13udm28297.1.2 bus2=p13ulv92358.1.2 switch=n enabled=y phases=2 Linecode=1P_OH_AL_2/0_Rucina_2

New Line.l(r:p13udm28297-p13udt6555lv) Units=km Length=0.0166815 bus1=p13udt6555lv.1.2 bus2=p13udm28297.1.2 switch=n enabled=y phases=2 Linecode=1P_OH_AL_2/0_Rucina_2

New Line.l(r:p13udm28298-p13ulv92382) Units=km Length=0.0172331 bus1=p13udm28298.1.2 bus2=p13ulv92382.1.2 switch=n enabled=y phases=2 Linecode=1P_UG_AL_1/0_Brenau_2

New Line.l(r:p13udm28298-p13udt6555lv) Units=km Length=0.040061 bus1=p13udt6555lv.1.2 bus2=p13udm28298.1.2 switch=n enabled=y phases=2 Linecode=1P_OH_AL_4/0_Zuzara_2

New Line.l(r:p13udt6556lv-p13ulv14559) Units=km Length=0.0137599 bus1=p13udt6556lv.1.2 bus2=p13ulv14559.1.2 switch=n enabled=y phases=2 Linecode=1P_UG_AL_1/0_Brenau_2

New Line.l(r:p13udm28302-p13ulv92324) Units=km Length=0.013869 bus1=p13udm28302.1.2 bus2=p13ulv92324.1.2 switch=n enabled=y phases=2 Linecode=1P_UG_AL_1/0_Brenau_2

New Line.l(r:p13udm28302-p13ulv92357) Units=km Length=0.010800200000000001 bus1=p13udm28302.1.2 bus2=p13ulv92357.1.2 switch=n enabled=y phases=2 Linecode=1P_UG_AL_1/0_Brenau_2

New Line.l(r:p13udm28300-p13ulv14565) Units=km Length=0.011165 bus1=p13udm28300.1.2 bus2=p13ulv14565.1.2 switch=n enabled=y phases=2 Linecode=1P_UG_AL_1/0_Brenau_2

New Line.l(r:p13udm28301-p13ulv14566) Units=km Length=0.00864209 bus1=p13udm28301.1.2 bus2=p13ulv14566.1.2 switch=n enabled=y phases=2 Linecode=1P_UG_AL_1/0_Brenau_2

New Line.l(r:p13udm28300-p13udm28301) Units=km Length=0.00936376 bus1=p13udm28300.1.2 bus2=p13udm28301.1.2 switch=n enabled=y phases=2 Linecode=1P_UG_AL_1/0_Brenau_2

New Line.l(r:p13udm28300-p13udm28302) Units=km Length=0.00935539 bus1=p13udm28302.1.2 bus2=p13udm28300.1.2 switch=n enabled=y phases=2 Linecode=1P_UG_AL_1/0_Brenau_2

New Line.l(r:p13udm28302-p13udt6556lv) Units=km Length=0.009369230000000001 bus1=p13udt6556lv.1.2 bus2=p13udm28302.1.2 switch=n enabled=y phases=2 Linecode=1P_UG_AL_4/0_Sweetbriar_2

New Line.l(r:p13udm28303-p13ulv92336) Units=km Length=0.0160594 bus1=p13udm28303.1.2 bus2=p13ulv92336.1.2 switch=n enabled=y phases=2 Linecode=1P_UG_AL_1/0_Brenau_2

New Line.l(r:p13udm28303-p13udt6556lv) Units=km Length=0.058135 bus1=p13udt6556lv.1.2 bus2=p13udm28303.1.2 switch=n enabled=y phases=2 Linecode=1P_UG_AL_1/0_Brenau_2

New Line.l(r:p13udm28304-p13ulv92353) Units=km Length=0.0132537 bus1=p13udm28304.1.2 bus2=p13ulv92353.1.2 switch=n enabled=y phases=2 Linecode=1P_UG_AL_1/0_Brenau_2

New Line.l(r:p13udm28304-p13udt6556lv) Units=km Length=0.0419604 bus1=p13udt6556lv.1.2 bus2=p13udm28304.1.2 switch=n enabled=y phases=2 Linecode=1P_UG_AL_1/0_Brenau_2

New Line.l(r:p13udt6557lv-p13ulv92378) Units=km Length=0.0126267 bus1=p13udt6557lv.1.2 bus2=p13ulv92378.1.2 switch=n enabled=y phases=2 Linecode=1P_UG_AL_1/0_Brenau_2

New Line.l(r:p13udm28308-p13ulv92365) Units=km Length=0.0136559 bus1=p13udm28308.1.2 bus2=p13ulv92365.1.2 switch=n enabled=y phases=2 Linecode=1P_UG_AL_1/0_Brenau_2

New Line.l(r:p13udm28306-p13ulv14560) Units=km Length=0.00731913 bus1=p13udm28306.1.2 bus2=p13ulv14560.1.2 switch=n enabled=y phases=2 Linecode=1P_UG_AL_1/0_Brenau_2

New Line.l(r:p13udm28307-p13ulv92341) Units=km Length=0.0060229 bus1=p13udm28307.1.2 bus2=p13ulv92341.1.2 switch=n enabled=y phases=2 Linecode=1P_UG_AL_1/0_Brenau_2

New Line.l(r:p13udm28306-p13udm28307) Units=km Length=0.0197027 bus1=p13udm28306.1.2 bus2=p13udm28307.1.2 switch=n enabled=y phases=2 Linecode=1P_UG_AL_1/0_Brenau_2

New Line.l(r:p13udm28306-p13udm28308) Units=km Length=0.00985643 bus1=p13udm28308.1.2 bus2=p13udm28306.1.2 switch=n enabled=y phases=2 Linecode=1P_UG_AL_1/0_Brenau_2

New Line.l(r:p13udm28308-p13udt6557lv) Units=km Length=0.007747030000000001 bus1=p13udt6557lv.1.2 bus2=p13udm28308.1.2 switch=n enabled=y phases=2 Linecode=1P_UG_AL_4/0_Sweetbriar_2

New Line.l(r:p13udm28310-p13ulv92381) Units=km Length=0.011624 bus1=p13udm28310.1.2 bus2=p13ulv92381.1.2 switch=n enabled=y phases=2 Linecode=1P_UG_AL_1/0_Brenau_2

New Line.l(r:p13udm28310-p13udt6557lv) Units=km Length=0.00773879 bus1=p13udt6557lv.1.2 bus2=p13udm28310.1.2 switch=n enabled=y phases=2 Linecode=1P_UG_AL_1/0_Brenau_2

New Line.l(r:p13udt6559lv-p13ulv14562) Units=km Length=0.008657540000000002 bus1=p13udt6559lv.1.2 bus2=p13ulv14562.1.2 switch=n enabled=y phases=2 Linecode=1P_UG_AL_1/0_Brenau_2

New Line.l(r:p13udt6559lv-p13ulv23611) Units=km Length=0.0259642 bus1=p13udt6559lv.1.2 bus2=p13ulv23611.1.2 switch=n enabled=y phases=2 Linecode=1P_UG_AL_1/0_Brenau_2

New Line.l(r:p13udm28320-p13ulv94152) Units=km Length=0.00686706 bus1=p13udm28320.1.2 bus2=p13ulv94152.1.2 switch=n enabled=y phases=2 Linecode=1P_UG_AL_1/0_Brenau_2

New Line.l(r:p13udm28320-p13ulv94184) Units=km Length=0.0089436 bus1=p13udm28320.1.2 bus2=p13ulv94184.1.2 switch=n enabled=y phases=2 Linecode=1P_UG_AL_1/0_Brenau_2

New Line.l(r:p13udm28319-p13ulv92937) Units=km Length=0.00747645 bus1=p13udm28319.1.2 bus2=p13ulv92937.1.2 switch=n enabled=y phases=2 Linecode=1P_UG_AL_1/0_Brenau_2

New Line.l(r:p13udm28318-p13ulv92910) Units=km Length=0.00954271 bus1=p13udm28318.1.2 bus2=p13ulv92910.1.2 switch=n enabled=y phases=2 Linecode=1P_UG_AL_1/0_Brenau_2

New Line.l(r:p13udm28317-p13ulv92907) Units=km Length=0.00965259 bus1=p13udm28317.1.2 bus2=p13ulv92907.1.2 switch=n enabled=y phases=2 Linecode=1P_UG_AL_1/0_Brenau_2

New Line.l(r:p13udm28317-p13udm28318) Units=km Length=0.00984838 bus1=p13udm28318.1.2 bus2=p13udm28317.1.2 switch=n enabled=y phases=2 Linecode=1P_UG_AL_1/0_Brenau_2

New Line.l(r:p13udm28318-p13udm28319) Units=km Length=0.00984838 bus1=p13udm28319.1.2 bus2=p13udm28318.1.2 switch=n enabled=y phases=2 Linecode=1P_UG_AL_1/0_Brenau_2

New Line.l(r:p13udm28319-p13udm28320) Units=km Length=0.00986236 bus1=p13udm28320.1.2 bus2=p13udm28319.1.2 switch=n enabled=y phases=2 Linecode=1P_UG_AL_2/0_Converse_2

New Line.l(r:p13udm28320-p13udt6559lv) Units=km Length=0.00984838 bus1=p13udt6559lv.1.2 bus2=p13udm28320.1.2 switch=n enabled=y phases=2 Linecode=1P_UG_AL_4/0_Sweetbriar_2

New Line.l(r:p13udm28321-p13ulv94173) Units=km Length=0.0085189 bus1=p13udm28321.1.2 bus2=p13ulv94173.1.2 switch=n enabled=y phases=2 Linecode=1P_UG_AL_1/0_Brenau_2

New Line.l(r:p13udm28316-p13ulv92271) Units=km Length=0.008764 bus1=p13udm28316.1.2 bus2=p13ulv92271.1.2 switch=n enabled=y phases=2 Linecode=1P_UG_AL_1/0_Brenau_2

New Line.l(r:p13udm28316-p13ulv94179) Units=km Length=0.00846735 bus1=p13udm28316.1.2 bus2=p13ulv94179.1.2 switch=n enabled=y phases=2 Linecode=1P_UG_AL_1/0_Brenau_2

New Line.l(r:p13udm28313-p13ulv14563) Units=km Length=0.00967019 bus1=p13udm28313.1.2 bus2=p13ulv14563.1.2 switch=n enabled=y phases=2 Linecode=1P_UG_AL_1/0_Brenau_2

New Line.l(r:p13udm28313-p13ulv92262) Units=km Length=0.00882078 bus1=p13udm28313.1.2 bus2=p13ulv92262.1.2 switch=n enabled=y phases=2 Linecode=1P_UG_AL_1/0_Brenau_2

New Line.l(r:p13udm28313-p13udm28316) Units=km Length=0.00985431 bus1=p13udm28316.1.2 bus2=p13udm28313.1.2 switch=n enabled=y phases=2 Linecode=1P_UG_AL_1/0_Brenau_2

New Line.l(r:p13udm28316-p13udm28321) Units=km Length=0.00984838 bus1=p13udm28321.1.2 bus2=p13udm28316.1.2 switch=n enabled=y phases=2 Linecode=1P_UG_AL_4/0_Sweetbriar_2

New Line.l(r:p13udm28321-p13udt6559lv) Units=km Length=0.00984838 bus1=p13udt6559lv.1.2 bus2=p13udm28321.1.2 switch=n enabled=y phases=2 Linecode=1P_UG_AL_4/0_Sweetbriar_2

New Line.l(r:p13udt6560lv-p13ulv92281) Units=km Length=0.00985174 bus1=p13udt6560lv.1.2 bus2=p13ulv92281.1.2 switch=n enabled=y phases=2 Linecode=1P_UG_AL_1/0_Brenau_2

New Line.l(r:p13udt6560lv-p13ulv92297) Units=km Length=0.008202950000000002 bus1=p13udt6560lv.1.2 bus2=p13ulv92297.1.2 switch=n enabled=y phases=2 Linecode=1P_UG_AL_1/0_Brenau_2

New Line.l(r:p13udm28324-p13ulv14564) Units=km Length=0.00793883 bus1=p13udm28324.1.2 bus2=p13ulv14564.1.2 switch=n enabled=y phases=2 Linecode=1P_UG_AL_1/0_Brenau_2

New Line.l(r:p13udm28324-p13ulv92270) Units=km Length=0.009049640000000001 bus1=p13udm28324.1.2 bus2=p13ulv92270.1.2 switch=n enabled=y phases=2 Linecode=1P_UG_AL_1/0_Brenau_2

New Line.l(r:p13udm28324-p13udt6560lv) Units=km Length=0.00984838 bus1=p13udt6560lv.1.2 bus2=p13udm28324.1.2 switch=n enabled=y phases=2 Linecode=1P_UG_AL_1/0_Brenau_2

New Line.l(r:p13udm28327-p13ulv92286) Units=km Length=0.0102166 bus1=p13udm28327.1.2 bus2=p13ulv92286.1.2 switch=n enabled=y phases=2 Linecode=1P_UG_AL_1/0_Brenau_2

New Line.l(r:p13udm28327-p13ulv92308) Units=km Length=0.008021100000000001 bus1=p13udm28327.1.2 bus2=p13ulv92308.1.2 switch=n enabled=y phases=2 Linecode=1P_UG_AL_1/0_Brenau_2

New Line.l(r:p13udm28328-p13ulv92293) Units=km Length=0.0104823 bus1=p13udm28328.1.2 bus2=p13ulv92293.1.2 switch=n enabled=y phases=2 Linecode=1P_UG_AL_1/0_Brenau_2

New Line.l(r:p13udm28330-p13ulv92302) Units=km Length=0.009734320000000001 bus1=p13udm28330.1.2 bus2=p13ulv92302.1.2 switch=n enabled=y phases=2 Linecode=1P_UG_AL_1/0_Brenau_2

New Line.l(r:p13udm28328-p13udm28330) Units=km Length=0.00984838 bus1=p13udm28328.1.2 bus2=p13udm28330.1.2 switch=n enabled=y phases=2 Linecode=1P_UG_AL_1/0_Brenau_2

New Line.l(r:p13udm28327-p13udm28328) Units=km Length=0.00984838 bus1=p13udm28327.1.2 bus2=p13udm28328.1.2 switch=n enabled=y phases=2 Linecode=1P_UG_AL_1/0_Brenau_2

New Line.l(r:p13udm28327-p13udt6560lv) Units=km Length=0.00985431 bus1=p13udt6560lv.1.2 bus2=p13udm28327.1.2 switch=n enabled=y phases=2 Linecode=1P_UG_AL_2/0_Converse_2

New Line.l(r:p13udt6561lv-p13ulv92397) Units=km Length=0.0121469 bus1=p13udt6561lv.1.2 bus2=p13ulv92397.1.2 switch=n enabled=y phases=2 Linecode=1P_UG_AL_1/0_Brenau_2
