New Load.load_p13ulv3487_1 conn=wye bus1=p13ulv3487.1 kV=0.12 Vminpu=0.8 Vmaxpu=1.2 model=1 kW=3.44520373572286 kvar=1.4184167138400507 Phases=1 yearly=res_kw_2053_pu

New Load.load_p13ulv3487_2 conn=wye bus1=p13ulv3487.2 kV=0.12 Vminpu=0.8 Vmaxpu=1.2 model=1 kW=3.44520373572286 kvar=1.4184167138400507 Phases=1 yearly=res_kw_2053_pu

New Load.load_p13ulv3488_1 conn=wye bus1=p13ulv3488.1 kV=0.12 Vminpu=0.8 Vmaxpu=1.2 model=1 kW=6.1737287494280215 kvar=1.6148221166610475 Phases=1 yearly=res_kw_10660_pu

New Load.load_p13ulv3488_2 conn=wye bus1=p13ulv3488.2 kV=0.12 Vminpu=0.8 Vmaxpu=1.2 model=1 kW=6.1737287494280215 kvar=1.6148221166610475 Phases=1 yearly=res_kw_10660_pu

New Load.load_p13ulv3489_1 conn=wye bus1=p13ulv3489.1 kV=0.12 Vminpu=0.8 Vmaxpu=1.2 model=1 kW=8.487789356605123 kvar=1.6644890411465327 Phases=1 yearly=res_kw_12849_pu

New Load.load_p13ulv3489_2 conn=wye bus1=p13ulv3489.2 kV=0.12 Vminpu=0.8 Vmaxpu=1.2 model=1 kW=8.487789356605123 kvar=1.6644890411465327 Phases=1 yearly=res_kw_12849_pu

New Load.load_p13ulv3490_1 conn=wye bus1=p13ulv3490.1 kV=0.12 Vminpu=0.8 Vmaxpu=1.2 model=1 kW=2.126452413906085 kvar=0.7635725277417109 Phases=1 yearly=res_kw_340_pu

New Load.load_p13ulv3490_2 conn=wye bus1=p13ulv3490.2 kV=0.12 Vminpu=0.8 Vmaxpu=1.2 model=1 kW=2.126452413906085 kvar=0.7635725277417109 Phases=1 yearly=res_kw_340_pu

New Load.load_p13ulv3491_1 conn=wye bus1=p13ulv3491.1 kV=0.12 Vminpu=0.8 Vmaxpu=1.2 model=1 kW=8.487789356605123 kvar=1.6644890411465327 Phases=1 yearly=res_kw_12849_pu

New Load.load_p13ulv3491_2 conn=wye bus1=p13ulv3491.2 kV=0.12 Vminpu=0.8 Vmaxpu=1.2 model=1 kW=8.487789356605123 kvar=1.6644890411465327 Phases=1 yearly=res_kw_12849_pu

New Load.load_p13ulv3492_1 conn=wye bus1=p13ulv3492.1 kV=0.12 Vminpu=0.8 Vmaxpu=1.2 model=1 kW=3.8249517279712286 kvar=0.9876552030064008 Phases=1 yearly=res_kw_3019_pu

New Load.load_p13ulv3492_2 conn=wye bus1=p13ulv3492.2 kV=0.12 Vminpu=0.8 Vmaxpu=1.2 model=1 kW=3.8249517279712286 kvar=0.9876552030064008 Phases=1 yearly=res_kw_3019_pu

New Load.load_p13ulv3493_1 conn=wye bus1=p13ulv3493.1 kV=0.12 Vminpu=0.8 Vmaxpu=1.2 model=1 kW=1.943629271056502 kvar=0.7833429138481941 Phases=1 yearly=res_kw_9131_pu

New Load.load_p13ulv3493_2 conn=wye bus1=p13ulv3493.2 kV=0.12 Vminpu=0.8 Vmaxpu=1.2 model=1 kW=1.943629271056502 kvar=0.7833429138481941 Phases=1 yearly=res_kw_9131_pu

New Load.load_p13ulv3494_1 conn=wye bus1=p13ulv3494.1 kV=0.12 Vminpu=0.8 Vmaxpu=1.2 model=1 kW=4.653017545986474 kvar=1.050503252698808 Phases=1 yearly=res_kw_4813_pu

New Load.load_p13ulv3494_2 conn=wye bus1=p13ulv3494.2 kV=0.12 Vminpu=0.8 Vmaxpu=1.2 model=1 kW=4.653017545986474 kvar=1.050503252698808 Phases=1 yearly=res_kw_4813_pu

New Load.load_p13ulv3495_1 conn=wye bus1=p13ulv3495.1 kV=0.12 Vminpu=0.8 Vmaxpu=1.2 model=1 kW=3.4477550901029463 kvar=0.48537613816094066 Phases=1 yearly=res_kw_8004_pu

New Load.load_p13ulv3495_2 conn=wye bus1=p13ulv3495.2 kV=0.12 Vminpu=0.8 Vmaxpu=1.2 model=1 kW=3.4477550901029463 kvar=0.48537613816094066 Phases=1 yearly=res_kw_8004_pu

New Load.load_p13ulv3496_1 conn=wye bus1=p13ulv3495.1 kV=0.12 Vminpu=0.8 Vmaxpu=1.2 model=1 kW=14.803618323475414 kvar=0.7690430116921039 Phases=1 yearly=res_kw_9305_pu

New Load.load_p13ulv3496_2 conn=wye bus1=p13ulv3495.2 kV=0.12 Vminpu=0.8 Vmaxpu=1.2 model=1 kW=14.803618323475414 kvar=0.7690430116921039 Phases=1 yearly=res_kw_9305_pu

New Load.load_p13ulv3497_1 conn=wye bus1=p13ulv3497.1 kV=0.12 Vminpu=0.8 Vmaxpu=1.2 model=1 kW=5.2844394308809175 kvar=1.0522712324848236 Phases=1 yearly=res_kw_4549_pu

New Load.load_p13ulv3497_2 conn=wye bus1=p13ulv3497.2 kV=0.12 Vminpu=0.8 Vmaxpu=1.2 model=1 kW=5.2844394308809175 kvar=1.0522712324848236 Phases=1 yearly=res_kw_4549_pu

New Load.load_p13ulv3498_1 conn=wye bus1=p13ulv3498.1 kV=0.12 Vminpu=0.8 Vmaxpu=1.2 model=1 kW=3.2887112128735323 kvar=0.8179021603182046 Phases=1 yearly=res_kw_119_pu

New Load.load_p13ulv3498_2 conn=wye bus1=p13ulv3498.2 kV=0.12 Vminpu=0.8 Vmaxpu=1.2 model=1 kW=3.2887112128735323 kvar=0.8179021603182046 Phases=1 yearly=res_kw_119_pu

New Load.load_p13ulv3499_1 conn=wye bus1=p13ulv3499.1 kV=0.12 Vminpu=0.8 Vmaxpu=1.2 model=1 kW=4.401403633464691 kvar=0.9681850093535511 Phases=1 yearly=res_kw_8060_pu

New Load.load_p13ulv3499_2 conn=wye bus1=p13ulv3499.2 kV=0.12 Vminpu=0.8 Vmaxpu=1.2 model=1 kW=4.401403633464691 kvar=0.9681850093535511 Phases=1 yearly=res_kw_8060_pu

New Load.load_p13ulv14552_1 conn=wye bus1=p13ulv14552.1 kV=0.12 Vminpu=0.8 Vmaxpu=1.2 model=1 kW=8.445320136712393 kvar=1.7057595747683787 Phases=1 yearly=res_kw_11483_pu

New Load.load_p13ulv14552_2 conn=wye bus1=p13ulv14552.2 kV=0.12 Vminpu=0.8 Vmaxpu=1.2 model=1 kW=8.445320136712393 kvar=1.7057595747683787 Phases=1 yearly=res_kw_11483_pu

New Load.load_p13ulv14553_1 conn=wye bus1=p13ulv14553.1 kV=0.12 Vminpu=0.8 Vmaxpu=1.2 model=1 kW=5.362179307885926 kvar=0.2715726031269967 Phases=1 yearly=res_kw_6510_pu

New Load.load_p13ulv14553_2 conn=wye bus1=p13ulv14553.2 kV=0.12 Vminpu=0.8 Vmaxpu=1.2 model=1 kW=5.362179307885926 kvar=0.2715726031269967 Phases=1 yearly=res_kw_6510_pu

New Load.load_p13ulv14554_1 conn=wye bus1=p13ulv14554.1 kV=0.12 Vminpu=0.8 Vmaxpu=1.2 model=1 kW=4.298732967846568 kvar=1.4010470651986036 Phases=1 yearly=res_kw_8466_pu

New Load.load_p13ulv14554_2 conn=wye bus1=p13ulv14554.2 kV=0.12 Vminpu=0.8 Vmaxpu=1.2 model=1 kW=4.298732967846568 kvar=1.4010470651986036 Phases=1 yearly=res_kw_8466_pu

New Load.load_p13ulv14555_1 conn=wye bus1=p13ulv14555.1 kV=0.12 Vminpu=0.8 Vmaxpu=1.2 model=1 kW=2.9248113133092115 kvar=0.6033698329042984 Phases=1 yearly=res_kw_7148_pu

New Load.load_p13ulv14555_2 conn=wye bus1=p13ulv14555.2 kV=0.12 Vminpu=0.8 Vmaxpu=1.2 model=1 kW=2.9248113133092115 kvar=0.6033698329042984 Phases=1 yearly=res_kw_7148_pu

New Load.load_p13ulv14556_1 conn=wye bus1=p13ulv14556.1 kV=0.12 Vminpu=0.8 Vmaxpu=1.2 model=1 kW=6.248584313025809 kvar=1.2491610077411264 Phases=1 yearly=res_kw_3993_pu

New Load.load_p13ulv14556_2 conn=wye bus1=p13ulv14556.2 kV=0.12 Vminpu=0.8 Vmaxpu=1.2 model=1 kW=6.248584313025809 kvar=1.2491610077411264 Phases=1 yearly=res_kw_3993_pu

New Load.load_p13ulv14557_1 conn=wye bus1=p13ulv14557.1 kV=0.12 Vminpu=0.8 Vmaxpu=1.2 model=1 kW=7.043744081036207 kvar=1.3364700722397445 Phases=1 yearly=res_kw_1142_pu

New Load.load_p13ulv14557_2 conn=wye bus1=p13ulv14557.2 kV=0.12 Vminpu=0.8 Vmaxpu=1.2 model=1 kW=7.043744081036207 kvar=1.3364700722397445 Phases=1 yearly=res_kw_1142_pu

New Load.load_p13ulv14558_1 conn=wye bus1=p13ulv14558.1 kV=0.12 Vminpu=0.8 Vmaxpu=1.2 model=1 kW=4.452260307167006 kvar=0.9228554706975283 Phases=1 yearly=res_kw_10024_pu

New Load.load_p13ulv14558_2 conn=wye bus1=p13ulv14558.2 kV=0.12 Vminpu=0.8 Vmaxpu=1.2 model=1 kW=4.452260307167006 kvar=0.9228554706975283 Phases=1 yearly=res_kw_10024_pu

New Load.load_p13ulv14559_1 conn=wye bus1=p13ulv14559.1 kV=0.12 Vminpu=0.8 Vmaxpu=1.2 model=1 kW=8.898343312387587 kvar=1.2494555564830871 Phases=1 yearly=res_kw_13906_pu

New Load.load_p13ulv14559_2 conn=wye bus1=p13ulv14559.2 kV=0.12 Vminpu=0.8 Vmaxpu=1.2 model=1 kW=8.898343312387587 kvar=1.2494555564830871 Phases=1 yearly=res_kw_13906_pu

New Load.load_p13ulv14560_1 conn=wye bus1=p13ulv14560.1 kV=0.12 Vminpu=0.8 Vmaxpu=1.2 model=1 kW=4.653017545986474 kvar=1.050503252698808 Phases=1 yearly=res_kw_4813_pu

New Load.load_p13ulv14560_2 conn=wye bus1=p13ulv14560.2 kV=0.12 Vminpu=0.8 Vmaxpu=1.2 model=1 kW=4.653017545986474 kvar=1.050503252698808 Phases=1 yearly=res_kw_4813_pu

New Load.load_p13ulv14561 conn=wye bus1=p13ulv14561.1.2.3 kV=0.48 Vminpu=0.8 Vmaxpu=1.2 model=1 kW=32.88587122185019 kvar=8.881981390561144 Phases=3 yearly=res_kw_10906_pu

New Load.load_p13ulv14562_1 conn=wye bus1=p13ulv14562.1 kV=0.12 Vminpu=0.8 Vmaxpu=1.2 model=1 kW=7.548234505832462 kvar=1.3438059361790657 Phases=1 yearly=res_kw_12817_pu

New Load.load_p13ulv14562_2 conn=wye bus1=p13ulv14562.2 kV=0.12 Vminpu=0.8 Vmaxpu=1.2 model=1 kW=7.548234505832462 kvar=1.3438059361790657 Phases=1 yearly=res_kw_12817_pu

New Load.load_p13ulv14563_1 conn=wye bus1=p13ulv14563.1 kV=0.12 Vminpu=0.8 Vmaxpu=1.2 model=1 kW=4.0582443304612115 kvar=1.5314950530751326 Phases=1 yearly=res_kw_12995_pu

New Load.load_p13ulv14563_2 conn=wye bus1=p13ulv14563.2 kV=0.12 Vminpu=0.8 Vmaxpu=1.2 model=1 kW=4.0582443304612115 kvar=1.5314950530751326 Phases=1 yearly=res_kw_12995_pu

New Load.load_p13ulv14564_1 conn=wye bus1=p13ulv14564.1 kV=0.12 Vminpu=0.8 Vmaxpu=1.2 model=1 kW=2.1383669294427556 kvar=0.9111586935574751 Phases=1 yearly=res_kw_5301_pu

New Load.load_p13ulv14564_2 conn=wye bus1=p13ulv14564.2 kV=0.12 Vminpu=0.8 Vmaxpu=1.2 model=1 kW=2.1383669294427556 kvar=0.9111586935574751 Phases=1 yearly=res_kw_5301_pu

New Load.load_p13ulv14565_1 conn=wye bus1=p13ulv14565.1 kV=0.12 Vminpu=0.8 Vmaxpu=1.2 model=1 kW=1.662175563154952 kvar=0.943336650616341 Phases=1 yearly=res_kw_899_pu

New Load.load_p13ulv14565_2 conn=wye bus1=p13ulv14565.2 kV=0.12 Vminpu=0.8 Vmaxpu=1.2 model=1 kW=1.662175563154952 kvar=0.943336650616341 Phases=1 yearly=res_kw_899_pu

New Load.load_p13ulv14566_1 conn=wye bus1=p13ulv14566.1 kV=0.12 Vminpu=0.8 Vmaxpu=1.2 model=1 kW=2.7071371409921654 kvar=1.0605988772240902 Phases=1 yearly=res_kw_10262_pu

New Load.load_p13ulv14566_2 conn=wye bus1=p13ulv14566.2 kV=0.12 Vminpu=0.8 Vmaxpu=1.2 model=1 kW=2.7071371409921654 kvar=1.0605988772240902 Phases=1 yearly=res_kw_10262_pu

New Load.load_p13ulv14567_1 conn=wye bus1=p13ulv14567.1 kV=0.12 Vminpu=0.8 Vmaxpu=1.2 model=1 kW=3.05276934607919 kvar=1.2252585647321785 Phases=1 yearly=res_kw_10713_pu

New Load.load_p13ulv14567_2 conn=wye bus1=p13ulv14567.2 kV=0.12 Vminpu=0.8 Vmaxpu=1.2 model=1 kW=3.05276934607919 kvar=1.2252585647321785 Phases=1 yearly=res_kw_10713_pu

New Load.load_p13ulv14568_1 conn=wye bus1=p13ulv14568.1 kV=0.12 Vminpu=0.8 Vmaxpu=1.2 model=1 kW=2.8960916576388023 kvar=0.9964685634210223 Phases=1 yearly=res_kw_12807_pu

New Load.load_p13ulv14568_2 conn=wye bus1=p13ulv14568.2 kV=0.12 Vminpu=0.8 Vmaxpu=1.2 model=1 kW=2.8960916576388023 kvar=0.9964685634210223 Phases=1 yearly=res_kw_12807_pu

New Load.load_p13ulv14569_1 conn=wye bus1=p13ulv14569.1 kV=0.12 Vminpu=0.8 Vmaxpu=1.2 model=1 kW=2.674839808215865 kvar=0.9201296523048377 Phases=1 yearly=res_kw_3524_pu

New Load.load_p13ulv14569_2 conn=wye bus1=p13ulv14569.2 kV=0.12 Vminpu=0.8 Vmaxpu=1.2 model=1 kW=2.674839808215865 kvar=0.9201296523048377 Phases=1 yearly=res_kw_3524_pu

New Load.load_p13ulv14570_1 conn=wye bus1=p13ulv14570.1 kV=0.12 Vminpu=0.8 Vmaxpu=1.2 model=1 kW=2.913765574890343 kvar=0.8731645318957415 Phases=1 yearly=res_kw_12841_pu

New Load.load_p13ulv14570_2 conn=wye bus1=p13ulv14570.2 kV=0.12 Vminpu=0.8 Vmaxpu=1.2 model=1 kW=2.913765574890343 kvar=0.8731645318957415 Phases=1 yearly=res_kw_12841_pu

New Load.load_p13ulv14571_1 conn=wye bus1=p13ulv14571.1 kV=0.12 Vminpu=0.8 Vmaxpu=1.2 model=1 kW=2.3053857478313646 kvar=0.13774669750229476 Phases=1 yearly=res_kw_11842_pu

New Load.load_p13ulv14571_2 conn=wye bus1=p13ulv14571.2 kV=0.12 Vminpu=0.8 Vmaxpu=1.2 model=1 kW=2.3053857478313646 kvar=0.13774669750229476 Phases=1 yearly=res_kw_11842_pu

New Load.load_p13ulv14572_1 conn=wye bus1=p13ulv14572.1 kV=0.12 Vminpu=0.8 Vmaxpu=1.2 model=1 kW=5.479050822414988 kvar=0.9876862622520264 Phases=1 yearly=res_kw_8730_pu

New Load.load_p13ulv14572_2 conn=wye bus1=p13ulv14572.2 kV=0.12 Vminpu=0.8 Vmaxpu=1.2 model=1 kW=5.479050822414988 kvar=0.9876862622520264 Phases=1 yearly=res_kw_8730_pu

New Load.load_p13ulv14573_1 conn=wye bus1=p13ulv14573.1 kV=0.12 Vminpu=0.8 Vmaxpu=1.2 model=1 kW=3.6084253745767656 kvar=0.18112692592807808 Phases=1 yearly=res_kw_12525_pu

New Load.load_p13ulv14573_2 conn=wye bus1=p13ulv14573.2 kV=0.12 Vminpu=0.8 Vmaxpu=1.2 model=1 kW=3.6084253745767656 kvar=0.18112692592807808 Phases=1 yearly=res_kw_12525_pu

New Load.load_p13ulv14574_1 conn=wye bus1=p13ulv14574.1 kV=0.12 Vminpu=0.8 Vmaxpu=1.2 model=1 kW=1.4542173217169805 kvar=0.40109131786854557 Phases=1 yearly=res_kw_9254_pu

New Load.load_p13ulv14574_2 conn=wye bus1=p13ulv14574.2 kV=0.12 Vminpu=0.8 Vmaxpu=1.2 model=1 kW=1.4542173217169805 kvar=0.40109131786854557 Phases=1 yearly=res_kw_9254_pu

New Load.load_p13ulv14575_1 conn=wye bus1=p13ulv14574.1 kV=0.12 Vminpu=0.8 Vmaxpu=1.2 model=1 kW=2.5975572325002942 kvar=0.41729917554764967 Phases=1 yearly=res_kw_2553_pu

New Load.load_p13ulv14575_2 conn=wye bus1=p13ulv14574.2 kV=0.12 Vminpu=0.8 Vmaxpu=1.2 model=1 kW=2.5975572325002942 kvar=0.41729917554764967 Phases=1 yearly=res_kw_2553_pu

New Load.load_p13ulv14576_1 conn=wye bus1=p13ulv14576.1 kV=0.12 Vminpu=0.8 Vmaxpu=1.2 model=1 kW=7.548234505832462 kvar=1.3438059361790657 Phases=1 yearly=res_kw_12817_pu

New Load.load_p13ulv14576_2 conn=wye bus1=p13ulv14576.2 kV=0.12 Vminpu=0.8 Vmaxpu=1.2 model=1 kW=7.548234505832462 kvar=1.3438059361790657 Phases=1 yearly=res_kw_12817_pu

New Load.load_p13ulv14577_1 conn=wye bus1=p13ulv14577.1 kV=0.12 Vminpu=0.8 Vmaxpu=1.2 model=1 kW=2.965698991960231 kvar=0.9240776131155559 Phases=1 yearly=res_kw_10202_pu

New Load.load_p13ulv14577_2 conn=wye bus1=p13ulv14577.2 kV=0.12 Vminpu=0.8 Vmaxpu=1.2 model=1 kW=2.965698991960231 kvar=0.9240776131155559 Phases=1 yearly=res_kw_10202_pu

New Load.load_p13ulv14578_1 conn=wye bus1=p13ulv14578.1 kV=0.12 Vminpu=0.8 Vmaxpu=1.2 model=1 kW=7.393517159365113 kvar=1.5396474285514203 Phases=1 yearly=res_kw_5207_pu

New Load.load_p13ulv14578_2 conn=wye bus1=p13ulv14578.2 kV=0.12 Vminpu=0.8 Vmaxpu=1.2 model=1 kW=7.393517159365113 kvar=1.5396474285514203 Phases=1 yearly=res_kw_5207_pu

New Load.load_p13ulv14579_1 conn=wye bus1=p13ulv14579.1 kV=0.12 Vminpu=0.8 Vmaxpu=1.2 model=1 kW=10.608883547698118 kvar=1.6188058816221027 Phases=1 yearly=res_kw_4778_pu

New Load.load_p13ulv14579_2 conn=wye bus1=p13ulv14579.2 kV=0.12 Vminpu=0.8 Vmaxpu=1.2 model=1 kW=10.608883547698118 kvar=1.6188058816221027 Phases=1 yearly=res_kw_4778_pu

New Load.load_p13ulv14580_1 conn=wye bus1=p13ulv14580.1 kV=0.12 Vminpu=0.8 Vmaxpu=1.2 model=1 kW=5.543994616476306 kvar=1.9494612483126939 Phases=1 yearly=res_kw_9437_pu

New Load.load_p13ulv14580_2 conn=wye bus1=p13ulv14580.2 kV=0.12 Vminpu=0.8 Vmaxpu=1.2 model=1 kW=5.543994616476306 kvar=1.9494612483126939 Phases=1 yearly=res_kw_9437_pu

New Load.load_p13ulv14581_1 conn=wye bus1=p13ulv14581.1 kV=0.12 Vminpu=0.8 Vmaxpu=1.2 model=1 kW=3.798628192482385 kvar=0.20494143179055518 Phases=1 yearly=res_kw_2375_pu

New Load.load_p13ulv14581_2 conn=wye bus1=p13ulv14581.2 kV=0.12 Vminpu=0.8 Vmaxpu=1.2 model=1 kW=3.798628192482385 kvar=0.20494143179055518 Phases=1 yearly=res_kw_2375_pu

New Load.load_p13ulv14582_1 conn=wye bus1=p13ulv14582.1 kV=0.12 Vminpu=0.8 Vmaxpu=1.2 model=1 kW=3.3779188875204915 kvar=0.1991516492044874 Phases=1 yearly=res_kw_14063_pu

New Load.load_p13ulv14582_2 conn=wye bus1=p13ulv14582.2 kV=0.12 Vminpu=0.8 Vmaxpu=1.2 model=1 kW=3.3779188875204915 kvar=0.1991516492044874 Phases=1 yearly=res_kw_14063_pu

New Load.load_p13ulv14583_1 conn=wye bus1=p13ulv14583.1 kV=0.12 Vminpu=0.8 Vmaxpu=1.2 model=1 kW=1.4542173217169805 kvar=0.40109131786854557 Phases=1 yearly=res_kw_9254_pu

New Load.load_p13ulv14583_2 conn=wye bus1=p13ulv14583.2 kV=0.12 Vminpu=0.8 Vmaxpu=1.2 model=1 kW=1.4542173217169805 kvar=0.40109131786854557 Phases=1 yearly=res_kw_9254_pu

New Load.load_p13ulv14584_1 conn=wye bus1=p13ulv14584.1 kV=0.12 Vminpu=0.8 Vmaxpu=1.2 model=1 kW=2.2846362285661588 kvar=0.6255567011837802 Phases=1 yearly=res_kw_11227_pu

New Load.load_p13ulv14584_2 conn=wye bus1=p13ulv14584.2 kV=0.12 Vminpu=0.8 Vmaxpu=1.2 model=1 kW=2.2846362285661588 kvar=0.6255567011837802 Phases=1 yearly=res_kw_11227_pu

New Load.load_p13ulv14585_1 conn=wye bus1=p13ulv14585.1 kV=0.12 Vminpu=0.8 Vmaxpu=1.2 model=1 kW=2.4499599264535363 kvar=1.1075248505769022 Phases=1 yearly=res_kw_11628_pu

New Load.load_p13ulv14585_2 conn=wye bus1=p13ulv14585.2 kV=0.12 Vminpu=0.8 Vmaxpu=1.2 model=1 kW=2.4499599264535363 kvar=1.1075248505769022 Phases=1 yearly=res_kw_11628_pu

New Load.load_p13ulv14586 conn=wye bus1=p13ulv14586.1.2.3 kV=0.48 Vminpu=0.8 Vmaxpu=1.2 model=1 kW=144.65089071508223 kvar=44.43339864824357 Phases=3 yearly=com_kw_19431_pu

New Load.load_p13ulv14587_1 conn=wye bus1=p13ulv14587.1 kV=0.12 Vminpu=0.8 Vmaxpu=1.2 model=1 kW=5.750187985817032 kvar=1.2906541500369129 Phases=1 yearly=res_kw_12138_pu

New Load.load_p13ulv14587_2 conn=wye bus1=p13ulv14587.2 kV=0.12 Vminpu=0.8 Vmaxpu=1.2 model=1 kW=5.750187985817032 kvar=1.2906541500369129 Phases=1 yearly=res_kw_12138_pu

New Load.load_p13ulv14588_1 conn=wye bus1=p13ulv14588.1 kV=0.12 Vminpu=0.8 Vmaxpu=1.2 model=1 kW=15.784561136308364 kvar=2.330546559761436 Phases=1 yearly=res_kw_970_pu

New Load.load_p13ulv14588_2 conn=wye bus1=p13ulv14588.2 kV=0.12 Vminpu=0.8 Vmaxpu=1.2 model=1 kW=15.784561136308364 kvar=2.330546559761436 Phases=1 yearly=res_kw_970_pu

New Load.load_p13ulv14589_1 conn=wye bus1=p13ulv14589.1 kV=0.12 Vminpu=0.8 Vmaxpu=1.2 model=1 kW=3.05276934607919 kvar=1.2252585647321785 Phases=1 yearly=res_kw_10713_pu

New Load.load_p13ulv14589_2 conn=wye bus1=p13ulv14589.2 kV=0.12 Vminpu=0.8 Vmaxpu=1.2 model=1 kW=3.05276934607919 kvar=1.2252585647321785 Phases=1 yearly=res_kw_10713_pu

New Load.load_p13ulv14590_1 conn=wye bus1=p13ulv14590.1 kV=0.12 Vminpu=0.8 Vmaxpu=1.2 model=1 kW=3.0505483791568033 kvar=0.16352032003592953 Phases=1 yearly=res_kw_8127_pu

New Load.load_p13ulv14590_2 conn=wye bus1=p13ulv14590.2 kV=0.12 Vminpu=0.8 Vmaxpu=1.2 model=1 kW=3.0505483791568033 kvar=0.16352032003592953 Phases=1 yearly=res_kw_8127_pu

New Load.load_p13ulv14591_1 conn=wye bus1=p13ulv14591.1 kV=0.12 Vminpu=0.8 Vmaxpu=1.2 model=1 kW=4.452260307167006 kvar=0.9228554706975283 Phases=1 yearly=res_kw_10024_pu

New Load.load_p13ulv14591_2 conn=wye bus1=p13ulv14591.2 kV=0.12 Vminpu=0.8 Vmaxpu=1.2 model=1 kW=4.452260307167006 kvar=0.9228554706975283 Phases=1 yearly=res_kw_10024_pu

New Load.load_p13ulv14592_1 conn=wye bus1=p13ulv14592.1 kV=0.12 Vminpu=0.8 Vmaxpu=1.2 model=1 kW=2.614361074501794 kvar=0.9432649217228006 Phases=1 yearly=res_kw_7999_pu

New Load.load_p13ulv14592_2 conn=wye bus1=p13ulv14592.2 kV=0.12 Vminpu=0.8 Vmaxpu=1.2 model=1 kW=2.614361074501794 kvar=0.9432649217228006 Phases=1 yearly=res_kw_7999_pu

New Load.load_p13ulv14593 conn=wye bus1=p13ulv14593.1.2.3 kV=0.48 Vminpu=0.8 Vmaxpu=1.2 model=1 kW=156.66184310843371 kvar=51.98637619006225 Phases=3 yearly=com_kw_2026_pu

New Load.load_p13ulv14594_1 conn=wye bus1=p13ulv14594.1 kV=0.12 Vminpu=0.8 Vmaxpu=1.2 model=1 kW=4.503669137183151 kvar=1.703333933062158 Phases=1 yearly=res_kw_7582_pu

New Load.load_p13ulv14594_2 conn=wye bus1=p13ulv14594.2 kV=0.12 Vminpu=0.8 Vmaxpu=1.2 model=1 kW=4.503669137183151 kvar=1.703333933062158 Phases=1 yearly=res_kw_7582_pu

New Load.load_p13ulv14595_1 conn=wye bus1=p13ulv14595.1 kV=0.12 Vminpu=0.8 Vmaxpu=1.2 model=1 kW=6.002793257848054 kvar=0.8079160653619367 Phases=1 yearly=res_kw_419_pu

New Load.load_p13ulv14595_2 conn=wye bus1=p13ulv14595.2 kV=0.12 Vminpu=0.8 Vmaxpu=1.2 model=1 kW=6.002793257848054 kvar=0.8079160653619367 Phases=1 yearly=res_kw_419_pu

New Load.load_p13ulv14596_1 conn=wye bus1=p13ulv14596.1 kV=0.12 Vminpu=0.8 Vmaxpu=1.2 model=1 kW=12.023186012073083 kvar=3.8369470039350952 Phases=1 yearly=res_kw_12451_pu

New Load.load_p13ulv14596_2 conn=wye bus1=p13ulv14596.2 kV=0.12 Vminpu=0.8 Vmaxpu=1.2 model=1 kW=12.023186012073083 kvar=3.8369470039350952 Phases=1 yearly=res_kw_12451_pu

New Load.load_p13ulv14597_1 conn=wye bus1=p13ulv14597.1 kV=0.12 Vminpu=0.8 Vmaxpu=1.2 model=1 kW=15.277523441137545 kvar=2.50092460753362 Phases=1 yearly=res_kw_2032_pu

New Load.load_p13ulv14597_2 conn=wye bus1=p13ulv14597.2 kV=0.12 Vminpu=0.8 Vmaxpu=1.2 model=1 kW=15.277523441137545 kvar=2.50092460753362 Phases=1 yearly=res_kw_2032_pu

New Load.load_p13ulv14598_1 conn=wye bus1=p13ulv14598.1 kV=0.12 Vminpu=0.8 Vmaxpu=1.2 model=1 kW=2.6022345663288227 kvar=0.9852843630023332 Phases=1 yearly=res_kw_4252_pu

New Load.load_p13ulv14598_2 conn=wye bus1=p13ulv14598.2 kV=0.12 Vminpu=0.8 Vmaxpu=1.2 model=1 kW=2.6022345663288227 kvar=0.9852843630023332 Phases=1 yearly=res_kw_4252_pu

New Load.load_p13ulv14599_1 conn=wye bus1=p13ulv14599.1 kV=0.12 Vminpu=0.8 Vmaxpu=1.2 model=1 kW=2.4281612945858138 kvar=0.9445805980245111 Phases=1 yearly=res_kw_3158_pu

New Load.load_p13ulv14599_2 conn=wye bus1=p13ulv14599.2 kV=0.12 Vminpu=0.8 Vmaxpu=1.2 model=1 kW=2.4281612945858138 kvar=0.9445805980245111 Phases=1 yearly=res_kw_3158_pu

New Load.load_p13ulv14600_1 conn=wye bus1=p13ulv14600.1 kV=0.12 Vminpu=0.8 Vmaxpu=1.2 model=1 kW=8.961064935962883 kvar=0.7984476517346335 Phases=1 yearly=res_kw_14433_pu

New Load.load_p13ulv14600_2 conn=wye bus1=p13ulv14600.2 kV=0.12 Vminpu=0.8 Vmaxpu=1.2 model=1 kW=8.961064935962883 kvar=0.7984476517346335 Phases=1 yearly=res_kw_14433_pu

New Load.load_p13ulv14601_1 conn=wye bus1=p13ulv14601.1 kV=0.12 Vminpu=0.8 Vmaxpu=1.2 model=1 kW=7.1340076066291225 kvar=1.6445586532986172 Phases=1 yearly=res_kw_2685_pu

New Load.load_p13ulv14601_2 conn=wye bus1=p13ulv14601.2 kV=0.12 Vminpu=0.8 Vmaxpu=1.2 model=1 kW=7.1340076066291225 kvar=1.6445586532986172 Phases=1 yearly=res_kw_2685_pu

New Load.load_p13ulv14602_1 conn=wye bus1=p13ulv14602.1 kV=0.12 Vminpu=0.8 Vmaxpu=1.2 model=1 kW=2.2640972637365526 kvar=0.8176434693117958 Phases=1 yearly=res_kw_5366_pu

New Load.load_p13ulv14602_2 conn=wye bus1=p13ulv14602.2 kV=0.12 Vminpu=0.8 Vmaxpu=1.2 model=1 kW=2.2640972637365526 kvar=0.8176434693117958 Phases=1 yearly=res_kw_5366_pu

New Load.load_p13ulv14603_1 conn=wye bus1=p13ulv14603.1 kV=0.12 Vminpu=0.8 Vmaxpu=1.2 model=1 kW=6.248584313025809 kvar=1.2491610077411264 Phases=1 yearly=res_kw_3993_pu

New Load.load_p13ulv14603_2 conn=wye bus1=p13ulv14603.2 kV=0.12 Vminpu=0.8 Vmaxpu=1.2 model=1 kW=6.248584313025809 kvar=1.2491610077411264 Phases=1 yearly=res_kw_3993_pu

New Load.load_p13ulv14604_1 conn=wye bus1=p13ulv14604.1 kV=0.12 Vminpu=0.8 Vmaxpu=1.2 model=1 kW=2.227237347131017 kvar=0.19709879277580364 Phases=1 yearly=res_kw_13866_pu

New Load.load_p13ulv14604_2 conn=wye bus1=p13ulv14604.2 kV=0.12 Vminpu=0.8 Vmaxpu=1.2 model=1 kW=2.227237347131017 kvar=0.19709879277580364 Phases=1 yearly=res_kw_13866_pu

New Load.load_p13ulv14605_1 conn=wye bus1=p13ulv14605.1 kV=0.12 Vminpu=0.8 Vmaxpu=1.2 model=1 kW=3.84353056223688 kvar=1.0285663602784454 Phases=1 yearly=res_kw_6730_pu

New Load.load_p13ulv14605_2 conn=wye bus1=p13ulv14605.2 kV=0.12 Vminpu=0.8 Vmaxpu=1.2 model=1 kW=3.84353056223688 kvar=1.0285663602784454 Phases=1 yearly=res_kw_6730_pu

New Load.load_p13ulv14606_1 conn=wye bus1=p13ulv14605.1 kV=0.12 Vminpu=0.8 Vmaxpu=1.2 model=1 kW=6.016101116752196 kvar=0.4002351854880724 Phases=1 yearly=res_kw_9190_pu

New Load.load_p13ulv14606_2 conn=wye bus1=p13ulv14605.2 kV=0.12 Vminpu=0.8 Vmaxpu=1.2 model=1 kW=6.016101116752196 kvar=0.4002351854880724 Phases=1 yearly=res_kw_9190_pu

New Load.load_p13ulv14607_1 conn=wye bus1=p13ulv14607.1 kV=0.12 Vminpu=0.8 Vmaxpu=1.2 model=1 kW=3.9956570871765704 kvar=1.2597733487954317 Phases=1 yearly=res_kw_7665_pu

New Load.load_p13ulv14607_2 conn=wye bus1=p13ulv14607.2 kV=0.12 Vminpu=0.8 Vmaxpu=1.2 model=1 kW=3.9956570871765704 kvar=1.2597733487954317 Phases=1 yearly=res_kw_7665_pu

New Load.load_p13ulv14608_1 conn=wye bus1=p13ulv14608.1 kV=0.12 Vminpu=0.8 Vmaxpu=1.2 model=1 kW=5.454982521291287 kvar=1.3947139746694095 Phases=1 yearly=res_kw_2822_pu

New Load.load_p13ulv14608_2 conn=wye bus1=p13ulv14608.2 kV=0.12 Vminpu=0.8 Vmaxpu=1.2 model=1 kW=5.454982521291287 kvar=1.3947139746694095 Phases=1 yearly=res_kw_2822_pu

New Load.load_p13ulv14609_1 conn=wye bus1=p13ulv14609.1 kV=0.12 Vminpu=0.8 Vmaxpu=1.2 model=1 kW=7.841058123199053 kvar=0.48211668942171737 Phases=1 yearly=res_kw_4924_pu

New Load.load_p13ulv14609_2 conn=wye bus1=p13ulv14609.2 kV=0.12 Vminpu=0.8 Vmaxpu=1.2 model=1 kW=7.841058123199053 kvar=0.48211668942171737 Phases=1 yearly=res_kw_4924_pu

New Load.load_p13ulv14610_1 conn=wye bus1=p13ulv14610.1 kV=0.12 Vminpu=0.8 Vmaxpu=1.2 model=1 kW=3.1870918835979514 kvar=0.5726461587221021 Phases=1 yearly=res_kw_10943_pu

New Load.load_p13ulv14610_2 conn=wye bus1=p13ulv14610.2 kV=0.12 Vminpu=0.8 Vmaxpu=1.2 model=1 kW=3.1870918835979514 kvar=0.5726461587221021 Phases=1 yearly=res_kw_10943_pu

New Load.load_p13ulv14611_1 conn=wye bus1=p13ulv14611.1 kV=0.12 Vminpu=0.8 Vmaxpu=1.2 model=1 kW=1.7867427853897686 kvar=0.8458875050289713 Phases=1 yearly=res_kw_11106_pu

New Load.load_p13ulv14611_2 conn=wye bus1=p13ulv14611.2 kV=0.12 Vminpu=0.8 Vmaxpu=1.2 model=1 kW=1.7867427853897686 kvar=0.8458875050289713 Phases=1 yearly=res_kw_11106_pu

New Load.load_p13ulv14612_1 conn=wye bus1=p13ulv14612.1 kV=0.12 Vminpu=0.8 Vmaxpu=1.2 model=1 kW=9.633169909207822 kvar=1.3028153557478144 Phases=1 yearly=res_kw_9830_pu

New Load.load_p13ulv14612_2 conn=wye bus1=p13ulv14612.2 kV=0.12 Vminpu=0.8 Vmaxpu=1.2 model=1 kW=9.633169909207822 kvar=1.3028153557478144 Phases=1 yearly=res_kw_9830_pu

New Load.load_p13ulv14613_1 conn=wye bus1=p13ulv14613.1 kV=0.12 Vminpu=0.8 Vmaxpu=1.2 model=1 kW=4.298732967846568 kvar=1.4010470651986036 Phases=1 yearly=res_kw_8466_pu

New Load.load_p13ulv14613_2 conn=wye bus1=p13ulv14613.2 kV=0.12 Vminpu=0.8 Vmaxpu=1.2 model=1 kW=4.298732967846568 kvar=1.4010470651986036 Phases=1 yearly=res_kw_8466_pu

New Load.load_p13ulv14614_1 conn=wye bus1=p13ulv14614.1 kV=0.12 Vminpu=0.8 Vmaxpu=1.2 model=1 kW=3.8766233997677513 kvar=0.6943953673016762 Phases=1 yearly=res_kw_4734_pu

New Load.load_p13ulv14614_2 conn=wye bus1=p13ulv14614.2 kV=0.12 Vminpu=0.8 Vmaxpu=1.2 model=1 kW=3.8766233997677513 kvar=0.6943953673016762 Phases=1 yearly=res_kw_4734_pu

New Load.load_p13ulv14615_1 conn=wye bus1=p13ulv14615.1 kV=0.12 Vminpu=0.8 Vmaxpu=1.2 model=1 kW=2.14871916727783 kvar=0.9610019420437865 Phases=1 yearly=res_kw_9745_pu

New Load.load_p13ulv14615_2 conn=wye bus1=p13ulv14615.2 kV=0.12 Vminpu=0.8 Vmaxpu=1.2 model=1 kW=2.14871916727783 kvar=0.9610019420437865 Phases=1 yearly=res_kw_9745_pu

New Load.load_p13ulv14616_1 conn=wye bus1=p13ulv14616.1 kV=0.12 Vminpu=0.8 Vmaxpu=1.2 model=1 kW=12.818385905646105 kvar=1.8889319663749569 Phases=1 yearly=res_kw_5152_pu

New Load.load_p13ulv14616_2 conn=wye bus1=p13ulv14616.2 kV=0.12 Vminpu=0.8 Vmaxpu=1.2 model=1 kW=12.818385905646105 kvar=1.8889319663749569 Phases=1 yearly=res_kw_5152_pu

New Load.load_p13ulv14617_1 conn=wye bus1=p13ulv14617.1 kV=0.12 Vminpu=0.8 Vmaxpu=1.2 model=1 kW=19.669557358663596 kvar=5.932120411384934 Phases=1 yearly=res_kw_8263_pu

New Load.load_p13ulv14617_2 conn=wye bus1=p13ulv14617.2 kV=0.12 Vminpu=0.8 Vmaxpu=1.2 model=1 kW=19.669557358663596 kvar=5.932120411384934 Phases=1 yearly=res_kw_8263_pu

New Load.load_p13ulv14618_1 conn=wye bus1=p13ulv14618.1 kV=0.12 Vminpu=0.8 Vmaxpu=1.2 model=1 kW=4.1666251038940505 kvar=0.31996366035022106 Phases=1 yearly=res_kw_9881_pu

New Load.load_p13ulv14618_2 conn=wye bus1=p13ulv14618.2 kV=0.12 Vminpu=0.8 Vmaxpu=1.2 model=1 kW=4.1666251038940505 kvar=0.31996366035022106 Phases=1 yearly=res_kw_9881_pu

New Load.load_p13ulv14619_1 conn=wye bus1=p13ulv14618.1 kV=0.12 Vminpu=0.8 Vmaxpu=1.2 model=1 kW=3.5821374260926486 kvar=0.18032929921833907 Phases=1 yearly=res_kw_11950_pu

New Load.load_p13ulv14619_2 conn=wye bus1=p13ulv14618.2 kV=0.12 Vminpu=0.8 Vmaxpu=1.2 model=1 kW=3.5821374260926486 kvar=0.18032929921833907 Phases=1 yearly=res_kw_11950_pu

New Load.load_p13ulv15762_1 conn=wye bus1=p13ulv15762.1 kV=0.12 Vminpu=0.8 Vmaxpu=1.2 model=1 kW=1.9833972076441928 kvar=0.7050587767625319 Phases=1 yearly=res_kw_6979_pu

New Load.load_p13ulv15762_2 conn=wye bus1=p13ulv15762.2 kV=0.12 Vminpu=0.8 Vmaxpu=1.2 model=1 kW=1.9833972076441928 kvar=0.7050587767625319 Phases=1 yearly=res_kw_6979_pu

New Load.load_p13ulv15763_1 conn=wye bus1=p13ulv15763.1 kV=0.12 Vminpu=0.8 Vmaxpu=1.2 model=1 kW=4.494912191673572 kvar=0.5365787739324195 Phases=1 yearly=res_kw_14721_pu

New Load.load_p13ulv15763_2 conn=wye bus1=p13ulv15763.2 kV=0.12 Vminpu=0.8 Vmaxpu=1.2 model=1 kW=4.494912191673572 kvar=0.5365787739324195 Phases=1 yearly=res_kw_14721_pu

New Load.load_p13ulv15779_1 conn=wye bus1=p13ulv15779.1 kV=0.12 Vminpu=0.8 Vmaxpu=1.2 model=1 kW=6.317139451053329 kvar=1.0686077089069603 Phases=1 yearly=res_kw_2437_pu

New Load.load_p13ulv15779_2 conn=wye bus1=p13ulv15779.2 kV=0.12 Vminpu=0.8 Vmaxpu=1.2 model=1 kW=6.317139451053329 kvar=1.0686077089069603 Phases=1 yearly=res_kw_2437_pu

New Load.load_p13ulv15780_1 conn=wye bus1=p13ulv15780.1 kV=0.12 Vminpu=0.8 Vmaxpu=1.2 model=1 kW=2.1383669294427556 kvar=0.9111586935574751 Phases=1 yearly=res_kw_5301_pu

New Load.load_p13ulv15780_2 conn=wye bus1=p13ulv15780.2 kV=0.12 Vminpu=0.8 Vmaxpu=1.2 model=1 kW=2.1383669294427556 kvar=0.9111586935574751 Phases=1 yearly=res_kw_5301_pu

New Load.load_p13ulv15781_1 conn=wye bus1=p13ulv15780.1 kV=0.12 Vminpu=0.8 Vmaxpu=1.2 model=1 kW=4.013992703229786 kvar=0.0951464885764126 Phases=1 yearly=res_kw_6166_pu

New Load.load_p13ulv15781_2 conn=wye bus1=p13ulv15780.2 kV=0.12 Vminpu=0.8 Vmaxpu=1.2 model=1 kW=4.013992703229786 kvar=0.0951464885764126 Phases=1 yearly=res_kw_6166_pu

New Load.load_p13ulv15782_1 conn=wye bus1=p13ulv15782.1 kV=0.12 Vminpu=0.8 Vmaxpu=1.2 model=1 kW=4.630004160996862 kvar=0.8460073515265234 Phases=1 yearly=res_kw_10888_pu

New Load.load_p13ulv15782_2 conn=wye bus1=p13ulv15782.2 kV=0.12 Vminpu=0.8 Vmaxpu=1.2 model=1 kW=4.630004160996862 kvar=0.8460073515265234 Phases=1 yearly=res_kw_10888_pu

New Load.load_p13ulv15783_1 conn=wye bus1=p13ulv15783.1 kV=0.12 Vminpu=0.8 Vmaxpu=1.2 model=1 kW=5.823766422694063 kvar=1.6806383057986853 Phases=1 yearly=res_kw_7757_pu

New Load.load_p13ulv15783_2 conn=wye bus1=p13ulv15783.2 kV=0.12 Vminpu=0.8 Vmaxpu=1.2 model=1 kW=5.823766422694063 kvar=1.6806383057986853 Phases=1 yearly=res_kw_7757_pu

New Load.load_p13ulv15784_1 conn=wye bus1=p13ulv15784.1 kV=0.12 Vminpu=0.8 Vmaxpu=1.2 model=1 kW=3.4950577425910927 kvar=0.9344550284674865 Phases=1 yearly=res_kw_9664_pu
